@<TRIPOS>MOLECULE
77232202
 53 54 0 0 0
SMALL
GASTEIGER

@<TRIPOS>ATOM
      1 S           0.7667    1.3410   -1.3050 S.3     1  UNL1       -0.1225
      2 O          -4.8466   -0.6969    1.7765 O.3     1  UNL1       -0.3913
      3 O          -4.5538   -1.3722   -2.3407 O.2     1  UNL1       -0.3006
      4 O           5.7550    0.1815   -0.3629 O.2     1  UNL1       -0.2739
      5 O          -2.8629    3.3372    0.7944 O.3     1  UNL1       -0.4762
      6 OXT        -0.8816    3.8241   -0.1219 O.2     1  UNL1       -0.2437
      7 N          -2.7262    0.7069    0.3636 N.pl3   1  UNL1       -0.3335
      8 N           3.9487    1.5954    1.0801 N.3     1  UNL1       -0.3046
      9 N           4.9025   -1.9137    0.0461 N.am    1  UNL1       -0.3063
     10 C          -2.3830   -0.7068    0.2912 C.3     1  UNL1        0.0395
     11 C          -1.1002   -0.6985   -0.6200 C.3     1  UNL1        0.0083
     12 C          -3.5859   -1.5521   -0.1418 C.3     1  UNL1        0.0589
     13 C           1.8224    1.2931    0.1747 C.3     1  UNL1        0.0240
     14 C          -0.7157    0.7808   -0.6374 C.2     1  UNL1        0.0182
     15 C           2.3755   -0.1030    0.4387 C.3     1  UNL1       -0.0156
     16 C           3.7723    0.1205    1.0236 C.3     1  UNL1        0.0860
     17 C           3.0774    2.1375    0.0281 C.3     1  UNL1        0.0088
     18 CA         -1.6782    1.5151   -0.0588 C.2     1  UNL1        0.1222
     19 C          -1.2562   -1.2742   -2.0250 C.3     1  UNL1       -0.0561
     20 C          -4.5849   -1.8597    0.9922 C.3     1  UNL1        0.0634
     21 C          -4.3629   -0.8592   -1.2398 C.2     1  UNL1        0.1276
     22 C           4.8930   -0.5265    0.1669 C.2     1  UNL1        0.2322
     23 C          -4.0726   -2.9586    1.9193 C.3     1  UNL1       -0.0382
     24 C          -1.7164    2.9887    0.1670 C.2     1  UNL1        0.3515
     25 C           3.9342   -2.8131    0.6522 C.3     1  UNL1        0.0029
     26 C           5.8865   -2.5360   -0.8260 C.3     1  UNL1        0.0029
     27 H          -2.0522   -1.0266    1.2887 H       1  UNL1        0.0511
     28 H          -0.3238   -1.2786   -0.1042 H       1  UNL1        0.0370
     29 H           1.2544    1.6394    1.0480 H       1  UNL1        0.0428
     30 H          -3.2429   -2.5126   -0.5434 H       1  UNL1        0.0418
     31 H           2.4214   -0.6982   -0.4811 H       1  UNL1        0.0296
     32 H           1.7331   -0.6329    1.1513 H       1  UNL1        0.0296
     33 H           3.8586   -0.2674    2.0438 H       1  UNL1        0.0557
     34 H          -3.2717    1.0593    1.1530 H       1  UNL1        0.1466
     35 H           3.5533    2.0157   -0.9527 H       1  UNL1        0.0435
     36 H           2.8818    3.2013    0.1938 H       1  UNL1        0.0435
     37 H          -1.9448   -0.6828   -2.6352 H       1  UNL1        0.0236
     38 H          -1.6086   -2.3094   -1.9951 H       1  UNL1        0.0236
     39 H          -0.2922   -1.2905   -2.5456 H       1  UNL1        0.0236
     40 H          -5.5410   -2.1849    0.5634 H       1  UNL1        0.0598
     41 H           4.9248    1.8080    0.8424 H       1  UNL1        0.1227
     42 H          -4.7911    0.1295   -0.9968 H       1  UNL1        0.1031
     43 H          -3.8334   -3.8702    1.3635 H       1  UNL1        0.0255
     44 H          -4.8307   -3.2029    2.6713 H       1  UNL1        0.0255
     45 H          -3.1836   -2.6370    2.4713 H       1  UNL1        0.0255
     46 H          -5.5189   -0.9322    2.4420 H       1  UNL1        0.2098
     47 H           3.1621   -3.0397   -0.0900 H       1  UNL1        0.0428
     48 H           3.4679   -2.3775    1.5366 H       1  UNL1        0.0428
     49 H           4.4324   -3.7393    0.9504 H       1  UNL1        0.0428
     50 H           6.4964   -3.2195   -0.2274 H       1  UNL1        0.0428
     51 H           6.5442   -1.8072   -1.3054 H       1  UNL1        0.0428
     52 H           5.3621   -3.1015   -1.6021 H       1  UNL1        0.0428
     53 H          -2.7982    4.3126    0.8459 H       1  UNL1        0.2954
@<TRIPOS>BOND
     1     1    13    1
     2     1    14    1
     3     2    20    1
     4     2    46    1
     5     3    21    2
     6     4    22    2
     7     5    24    1
     8     5    53    1
     9     6    24    2
    10     7    10    1
    11     7    18    1
    12     7    34    1
    13     8    16    1
    14     8    17    1
    15     8    41    1
    16     9    22   am
    17     9    25    1
    18     9    26    1
    19    10    11    1
    20    10    12    1
    21    10    27    1
    22    11    14    1
    23    11    19    1
    24    11    28    1
    25    12    20    1
    26    12    21    1
    27    12    30    1
    28    13    15    1
    29    13    17    1
    30    13    29    1
    31    14    18    2
    32    15    16    1
    33    15    31    1
    34    15    32    1
    35    16    22    1
    36    16    33    1
    37    17    35    1
    38    17    36    1
    39    18    24    1
    40    19    37    1
    41    19    38    1
    42    19    39    1
    43    20    23    1
    44    20    40    1
    45    21    42    1
    46    23    43    1
    47    23    44    1
    48    23    45    1
    49    25    47    1
    50    25    48    1
    51    25    49    1
    52    26    50    1
    53    26    51    1
    54    26    52    1
