REMARK  7 active torsions:
REMARK  status: ('A' for Active; 'I' for Inactive)
REMARK    1  A    between atoms: C1_1  and  C3_3 
REMARK    2  A    between atoms: C2_2  and  S14_14 
REMARK    3  A    between atoms: C3_3  and  C4_4 
REMARK    4  A    between atoms: C3_3  and  C7_7 
REMARK    5  A    between atoms: C5_5  and  C11_11 
REMARK    6  A    between atoms: S14_14  and  C15_15 
REMARK    7  A    between atoms: C17_17  and  C22_22 
REMARK       I    between atoms: C22_22  and  N23_23 
ROOT
HETATM    1  C2  MER A 301       0.311  33.532 -10.930  1.00 55.05     0.028 C 
HETATM    2  C4  MER A 301       0.970  31.525 -11.994  1.00 44.45     0.118 C 
HETATM    3  C5  MER A 301      -0.600  32.580 -10.691  1.00 50.61     0.142 C 
HETATM    4  N10 MER A 301      -0.318  31.449 -11.343  1.00 43.69    -0.266 NA
HETATM    5  C18 MER A 301       1.300  33.025 -11.932  1.00 43.21     0.053 C 
HETATM    6  C20 MER A 301       1.130  33.687 -13.304  1.00 40.28     0.007 C 
ENDROOT
BRANCH   1   7
HETATM    7  S14 MER A 301       0.365  35.110 -10.315  1.00 57.04    -0.115 SA
BRANCH   7   8
HETATM    8  C15 MER A 301       1.854  35.155  -9.358  1.00 64.36     0.090 A 
HETATM    9  C16 MER A 301       2.162  36.562  -8.863  1.00 72.79     0.059 A 
HETATM   10  C17 MER A 301       2.137  36.474  -7.347  1.00 84.34     0.335 A 
HETATM   11  N19 MER A 301       1.798  35.092  -6.919  1.00 84.00     0.347 N 
HETATM   12  C21 MER A 301       1.679  34.262  -8.128  1.00 75.53     0.302 A 
BRANCH  10  13
HETATM   13  C22 MER A 301       1.131  37.479  -6.849  1.00102.77     0.268 C 
HETATM   14  N23 MER A 301      -0.184  37.125  -6.636  1.00117.18    -0.315 N 
HETATM   15  C25 MER A 301      -1.217  37.053  -7.702  1.00101.46     0.128 C 
HETATM   16  C26 MER A 301      -0.699  36.803  -5.284  1.00 96.03     0.128 C 
HETATM   17  O24 MER A 301       1.602  38.599  -6.652  1.00 95.71    -0.270 OA
ENDBRANCH  10  13
ENDBRANCH   7   8
ENDBRANCH   1   7
BRANCH   3  18
HETATM   18  C11 MER A 301      -1.907  32.680 -10.039  1.00 60.56     0.229 C 
HETATM   19  O12 MER A 301      -2.162  33.691  -9.346  1.00 59.16    -0.643 OA
HETATM   20  O13 MER A 301      -2.760  31.754 -10.301  1.00 51.30    -0.643 OA
ENDBRANCH   3  18
BRANCH   2  21
HETATM   21  C3  MER A 301       0.866  30.806 -13.335  1.00 45.23     0.118 C 
BRANCH  21  22
HETATM   22  C1  MER A 301      -0.240  29.743 -13.184  1.00 48.68     0.211 C 
HETATM   23  O6  MER A 301      -1.319  29.879 -13.750  1.00 44.82    -0.288 OA
ENDBRANCH  21  22
BRANCH  21  24
HETATM   24  C7  MER A 301       2.196  30.106 -13.559  1.00 43.59     0.161 C 
HETATM   25  O8  MER A 301       3.107  31.133 -13.894  1.00 45.24    -0.223 OA
HETATM   26  C9  MER A 301       2.257  29.175 -14.760  1.00 46.33     0.036 C 
ENDBRANCH  21  24
ENDBRANCH   2  21
TORSDOF 7
