@<TRIPOS>MOLECULE
6616
 26 27 0 0 0
SMALL
GASTEIGER

@<TRIPOS>ATOM
      1 C           0.4716   -1.1360    0.4226 C.3     1  UNL1       -0.0316
      2 C          -0.8814   -0.4897   -0.0276 C.3     1  UNL1       -0.0110
      3 C           0.9939    1.0363    0.3963 C.3     1  UNL1       -0.0193
      4 C           1.0208   -0.0998    1.4167 C.3     1  UNL1       -0.0429
      5 C           1.5561   -1.0449   -0.6752 C.3     1  UNL1       -0.0489
      6 C           1.8603    0.4636   -0.7379 C.3     1  UNL1       -0.0462
      7 C          -0.4549    0.9746   -0.0492 C.2     1  UNL1       -0.0676
      8 C          -1.3688   -0.9861   -1.3958 C.3     1  UNL1       -0.0558
      9 C          -1.9876   -0.7517    1.0113 C.3     1  UNL1       -0.0558
     10 C          -1.2100    2.0337   -0.3611 C.2     1  UNL1       -0.0987
     11 H           0.3640   -2.1443    0.8309 H       1  UNL1        0.0309
     12 H           1.3207    2.0084    0.7702 H       1  UNL1        0.0346
     13 H           2.0322   -0.3363    1.7668 H       1  UNL1        0.0274
     14 H           0.3818    0.0741    2.2874 H       1  UNL1        0.0274
     15 H           1.2504   -1.4544   -1.6407 H       1  UNL1        0.0268
     16 H           2.4558   -1.5894   -0.3632 H       1  UNL1        0.0268
     17 H           2.9249    0.6399   -0.5474 H       1  UNL1        0.0271
     18 H           1.6125    0.8893   -1.7163 H       1  UNL1        0.0271
     19 H          -0.7244   -0.6548   -2.2168 H       1  UNL1        0.0238
     20 H          -1.4147   -2.0805   -1.4185 H       1  UNL1        0.0238
     21 H          -2.3732   -0.6076   -1.6195 H       1  UNL1        0.0238
     22 H          -1.7427   -0.3555    2.0017 H       1  UNL1        0.0238
     23 H          -2.9339   -0.2880    0.7088 H       1  UNL1        0.0238
     24 H          -2.1667   -1.8273    1.1207 H       1  UNL1        0.0238
     25 H          -2.2466    1.9165   -0.6569 H       1  UNL1        0.0535
     26 H          -0.8034    3.0386   -0.3274 H       1  UNL1        0.0535
@<TRIPOS>BOND
     1     1     2    1
     2     1     4    1
     3     1     5    1
     4     1    11    1
     5     2     7    1
     6     2     8    1
     7     2     9    1
     8     3     4    1
     9     3     6    1
    10     3     7    1
    11     3    12    1
    12     4    13    1
    13     4    14    1
    14     5     6    1
    15     5    15    1
    16     5    16    1
    17     6    17    1
    18     6    18    1
    19     7    10    2
    20     8    19    1
    21     8    20    1
    22     8    21    1
    23     9    22    1
    24     9    23    1
    25     9    24    1
    26    10    25    1
    27    10    26    1
