@<TRIPOS>MOLECULE
2355
 24 26 0 0 0
SMALL
GASTEIGER

@<TRIPOS>ATOM
      1 O           2.6797   -1.9443   -0.1144 O.2     1  UNL1       -0.4627
      2 O          -2.1227   -1.3565   -0.1192 O.2     1  UNL1       -0.4219
      3 O           0.9529    2.3600    0.3831 O.3     1  UNL1       -0.4937
      4 O          -4.3807   -0.9732   -0.1104 O.2     1  UNL1       -0.2452
      5 C           1.7917    0.1198    0.1232 C.ar    1  UNL1        0.0625
      6 C          -0.5955    0.5239    0.1344 C.ar    1  UNL1        0.0600
      7 C           0.7142    1.0226    0.2159 C.ar    1  UNL1        0.1414
      8 C           1.5183   -1.2343   -0.0462 C.ar    1  UNL1        0.1418
      9 C          -0.8070   -0.8442   -0.0358 C.ar    1  UNL1        0.1461
     10 C           0.2357   -1.7702   -0.1320 C.ar    1  UNL1        0.0245
     11 C           3.2075    0.2254    0.1589 C.ar    1  UNL1       -0.0126
     12 C          -1.7497    1.4046    0.2236 C.ar    1  UNL1       -0.0408
     13 C           3.6960   -1.0519    0.0112 C.ar    1  UNL1        0.0933
     14 C          -2.9867    0.9089    0.1434 C.ar    1  UNL1        0.0237
     15 C          -3.2393   -0.5319   -0.0365 C.ar    1  UNL1        0.3372
     16 C           1.0855    3.1410   -0.7993 C.3     1  UNL1        0.0788
     17 H           0.0628   -2.8311   -0.2642 H       1  UNL1        0.0692
     18 H           3.7989    1.1222    0.2777 H       1  UNL1        0.0656
     19 H          -1.6062    2.4699    0.3632 H       1  UNL1        0.0628
     20 H           4.6912   -1.4706   -0.0238 H       1  UNL1        0.1030
     21 H          -3.8497    1.5622    0.2122 H       1  UNL1        0.0689
     22 H           1.1964    4.1889   -0.5073 H       1  UNL1        0.0660
     23 H           0.1997    3.0488   -1.4356 H       1  UNL1        0.0660
     24 H           1.9774    2.8395   -1.3576 H       1  UNL1        0.0660
@<TRIPOS>BOND
     1     1     8   ar
     2     1    13   ar
     3     2     9   ar
     4     2    15   ar
     5     3     7    1
     6     3    16    1
     7     4    15    2
     8     5     7   ar
     9     5     8   ar
    10     5    11   ar
    11     6     7   ar
    12     6     9   ar
    13     6    12   ar
    14     8    10   ar
    15     9    10   ar
    16    10    17    1
    17    11    13   ar
    18    11    18    1
    19    12    14   ar
    20    12    19    1
    21    13    20    1
    22    14    15   ar
    23    14    21    1
    24    16    22    1
    25    16    23    1
    26    16    24    1
