@<TRIPOS>MOLECULE
10466745
 43 44 0 0 0
SMALL
GASTEIGER

@<TRIPOS>ATOM
      1 O           3.6690   -0.6332    0.4322 O.3     1  UNL1       -0.3886
      2 O          -2.2229   -1.6270   -1.3854 O.2     1  UNL1       -0.2974
      3 C          -0.0740   -0.1968    0.0828 C.3     1  UNL1       -0.0230
      4 C           1.2668   -0.8186    0.4883 C.3     1  UNL1       -0.0086
      5 C          -0.1429    1.2619    0.5588 C.3     1  UNL1       -0.0348
      6 C           2.4690   -0.1014   -0.1405 C.3     1  UNL1        0.0664
      7 C          -1.0987   -1.1792    0.6696 C.3     1  UNL1        0.0207
      8 C           1.0381   -2.2915    0.1762 C.3     1  UNL1       -0.0467
      9 C          -0.3683   -2.5361    0.7347 C.3     1  UNL1       -0.0429
     10 C           1.0460    2.0472   -0.0352 C.3     1  UNL1       -0.0471
     11 C           2.3990    1.3881    0.2601 C.3     1  UNL1       -0.0237
     12 C          -1.4611    1.9346    0.1791 C.3     1  UNL1       -0.0436
     13 C           2.5850   -0.2572   -1.6602 C.3     1  UNL1       -0.0358
     14 C          -2.3095   -1.2977   -0.2034 C.2     1  UNL1        0.1336
     15 C          -1.5215    3.3518    0.7436 C.3     1  UNL1       -0.0624
     16 C          -1.6367    1.9520   -1.3374 C.3     1  UNL1       -0.0624
     17 C          -3.6376   -0.9969    0.4369 C.3     1  UNL1       -0.0058
     18 H          -0.1317   -0.2271   -1.0109 H       1  UNL1        0.0314
     19 H           1.3763   -0.7462    1.5831 H       1  UNL1        0.0331
     20 H          -0.0472    1.2747    1.6536 H       1  UNL1        0.0306
     21 H          -1.3926   -0.8820    1.6827 H       1  UNL1        0.0380
     22 H           1.7826   -2.9422    0.6443 H       1  UNL1        0.0269
     23 H           1.0418   -2.4838   -0.9021 H       1  UNL1        0.0269
     24 H          -0.8728   -3.3447    0.1952 H       1  UNL1        0.0272
     25 H          -0.2912   -2.8497    1.7833 H       1  UNL1        0.0272
     26 H           1.0850    3.0625    0.3730 H       1  UNL1        0.0269
     27 H           0.9656    2.1440   -1.1218 H       1  UNL1        0.0269
     28 H           3.2020    1.9501   -0.2339 H       1  UNL1        0.0293
     29 H           2.6052    1.4851    1.3353 H       1  UNL1        0.0293
     30 H          -2.2914    1.3862    0.6263 H       1  UNL1        0.0298
     31 H           1.7106    0.1185   -2.1974 H       1  UNL1        0.0257
     32 H           3.4649    0.2811   -2.0324 H       1  UNL1        0.0257
     33 H           2.7408   -1.3054   -1.9370 H       1  UNL1        0.0257
     34 H           3.6136   -0.5424    1.3987 H       1  UNL1        0.2102
     35 H          -0.8525    4.0444    0.2238 H       1  UNL1        0.0232
     36 H          -2.5356    3.7534    0.6339 H       1  UNL1        0.0232
     37 H          -1.2788    3.3662    1.8113 H       1  UNL1        0.0232
     38 H          -0.9252    2.6080   -1.8466 H       1  UNL1        0.0232
     39 H          -2.6302    2.3548   -1.5728 H       1  UNL1        0.0232
     40 H          -1.6000    0.9678   -1.8046 H       1  UNL1        0.0232
     41 H          -4.0613   -1.9260    0.8265 H       1  UNL1        0.0306
     42 H          -3.5384   -0.2814    1.2550 H       1  UNL1        0.0306
     43 H          -4.3113   -0.5703   -0.3112 H       1  UNL1        0.0306
@<TRIPOS>BOND
     1     1     6    1
     2     1    34    1
     3     2    14    2
     4     3     4    1
     5     3     5    1
     6     3     7    1
     7     3    18    1
     8     4     6    1
     9     4     8    1
    10     4    19    1
    11     5    10    1
    12     5    12    1
    13     5    20    1
    14     6    11    1
    15     6    13    1
    16     7     9    1
    17     7    14    1
    18     7    21    1
    19     8     9    1
    20     8    22    1
    21     8    23    1
    22     9    24    1
    23     9    25    1
    24    10    11    1
    25    10    26    1
    26    10    27    1
    27    11    28    1
    28    11    29    1
    29    12    15    1
    30    12    16    1
    31    12    30    1
    32    13    31    1
    33    13    32    1
    34    13    33    1
    35    14    17    1
    36    15    35    1
    37    15    36    1
    38    15    37    1
    39    16    38    1
    40    16    39    1
    41    16    40    1
    42    17    41    1
    43    17    42    1
    44    17    43    1
