@<TRIPOS>MOLECULE
5316673
 51 54 0 0 0
SMALL
GASTEIGER

@<TRIPOS>ATOM
      1 O           1.4991    2.0885    0.9910 O.3     1  UNL1       -0.3339
      2 O           0.9488    0.4211   -0.6054 O.3     1  UNL1       -0.4532
      3 O           5.2312    1.0216   -0.4698 O.3     1  UNL1       -0.3864
      4 O           4.1406    3.5824   -1.1017 O.3     1  UNL1       -0.3866
      5 O           3.6976    0.4093    1.7702 O.3     1  UNL1       -0.3829
      6 O          -2.1046   -1.5396    0.0426 O.2     1  UNL1       -0.4507
      7 O          -1.0579    2.3468   -0.5935 O.2     1  UNL1       -0.2830
      8 O          -3.5624    3.0640   -0.3699 O.3     1  UNL1       -0.5058
      9 O          -6.6948   -0.4059    0.4625 O.3     1  UNL1       -0.5065
     10 O           2.7572   -5.5387   -0.0446 O.3     1  UNL1       -0.5068
     11 C           3.8313    1.2915   -0.4824 C.3     1  UNL1        0.1151
     12 C           3.5958    2.7485   -0.0821 C.3     1  UNL1        0.1096
     13 C           3.1085    0.3381    0.4707 C.3     1  UNL1        0.1454
     14 C           2.0924    3.0155    0.0762 C.3     1  UNL1        0.0883
     15 C           1.6346    0.7162    0.6065 C.3     1  UNL1        0.2311
     16 C           1.8142    4.4154    0.6168 C.3     1  UNL1       -0.0360
     17 C          -0.3697    0.0912   -0.3781 C.ar    1  UNL1        0.2138
     18 C          -0.7839   -1.1697   -0.1563 C.ar    1  UNL1        0.1809
     19 C          -1.3750    1.1811   -0.3984 C.ar    1  UNL1        0.2382
     20 C          -2.7732    0.7839   -0.1731 C.ar    1  UNL1        0.1092
     21 C          -3.0658   -0.5621    0.0362 C.ar    1  UNL1        0.1465
     22 C           0.1443   -2.3140   -0.1265 C.ar    1  UNL1        0.0213
     23 C          -3.7949    1.7368   -0.1700 C.ar    1  UNL1        0.1348
     24 C          -4.3843   -0.9644    0.2499 C.ar    1  UNL1        0.0231
     25 C           0.7403   -2.6992    1.0745 C.ar    1  UNL1       -0.0475
     26 C           0.4269   -3.0133   -1.3004 C.ar    1  UNL1       -0.0475
     27 C          -5.1129    1.3319    0.0444 C.ar    1  UNL1        0.0223
     28 C          -5.4073   -0.0159    0.2540 C.ar    1  UNL1        0.1239
     29 C           1.6185   -3.7826    1.1018 C.ar    1  UNL1       -0.0195
     30 C           1.3049   -4.0968   -1.2731 C.ar    1  UNL1       -0.0195
     31 C           1.9007   -4.4816   -0.0719 C.ar    1  UNL1        0.1169
     32 H           3.4890    1.1251   -1.5107 H       1  UNL1        0.0648
     33 H           4.1322    2.9740    0.8471 H       1  UNL1        0.0646
     34 H           3.2287   -0.6903    0.1115 H       1  UNL1        0.0683
     35 H           1.5913    2.9344   -0.8966 H       1  UNL1        0.0621
     36 H           1.2154    0.1431    1.4429 H       1  UNL1        0.1084
     37 H           2.2629    4.5476    1.6075 H       1  UNL1        0.0255
     38 H           2.2036    5.1893   -0.0513 H       1  UNL1        0.0255
     39 H           0.7364    4.5701    0.7370 H       1  UNL1        0.0255
     40 H           5.5435    1.1168    0.4463 H       1  UNL1        0.2100
     41 H           3.6508    3.4119   -1.9242 H       1  UNL1        0.2100
     42 H           3.2588   -0.2554    2.3282 H       1  UNL1        0.2102
     43 H          -4.6161   -2.0139    0.4131 H       1  UNL1        0.0691
     44 H           0.5261   -2.1696    1.9995 H       1  UNL1        0.0626
     45 H          -0.0301   -2.7254   -2.2441 H       1  UNL1        0.0626
     46 H          -5.9156    2.0657    0.0488 H       1  UNL1        0.0691
     47 H           2.0753   -4.0728    2.0442 H       1  UNL1        0.0654
     48 H           1.5208   -4.6373   -2.1906 H       1  UNL1        0.0654
     49 H          -4.4034    3.5506   -0.3290 H       1  UNL1        0.2922
     50 H          -7.2709    0.3772    0.4327 H       1  UNL1        0.2921
     51 H           3.0750   -5.6635    0.8662 H       1  UNL1        0.2921
@<TRIPOS>BOND
     1     1    14    1
     2     1    15    1
     3     2    15    1
     4     2    17    1
     5     3    11    1
     6     3    40    1
     7     4    12    1
     8     4    41    1
     9     5    13    1
    10     5    42    1
    11     6    18   ar
    12     6    21   ar
    13     7    19    2
    14     8    23    1
    15     8    49    1
    16     9    28    1
    17     9    50    1
    18    10    31    1
    19    10    51    1
    20    11    12    1
    21    11    13    1
    22    11    32    1
    23    12    14    1
    24    12    33    1
    25    13    15    1
    26    13    34    1
    27    14    16    1
    28    14    35    1
    29    15    36    1
    30    16    37    1
    31    16    38    1
    32    16    39    1
    33    17    18   ar
    34    17    19   ar
    35    18    22    1
    36    19    20   ar
    37    20    21   ar
    38    20    23   ar
    39    21    24   ar
    40    22    25   ar
    41    22    26   ar
    42    23    27   ar
    43    24    28   ar
    44    24    43    1
    45    25    29   ar
    46    25    44    1
    47    26    30   ar
    48    26    45    1
    49    27    28   ar
    50    27    46    1
    51    29    31   ar
    52    29    47    1
    53    30    31   ar
    54    30    48    1
