@<TRIPOS>MOLECULE
61166
 21 21 0 0 0
SMALL
GASTEIGER

@<TRIPOS>ATOM
      1 O          -0.7931    0.1182   -0.1021 O.3     1  UNL1       -0.4568
      2 O           1.8571    0.7415    0.7303 O.2     1  UNL1       -0.4644
      3 O          -2.5335   -1.2733    0.4961 O.2     1  UNL1       -0.2509
      4 C           0.1475   -0.8879    0.2871 C.3     1  UNL1        0.1497
      5 C           1.5381   -0.3756    0.0522 C.ar    1  UNL1        0.1421
      6 C          -2.9636    0.9475   -0.3945 C.3     1  UNL1        0.0421
      7 C          -2.1087   -0.2130    0.0581 C.2     1  UNL1        0.3072
      8 C           2.5538   -0.8249   -0.7230 C.ar    1  UNL1       -0.0173
      9 C          -4.4470    0.6494   -0.2650 C.3     1  UNL1       -0.0552
     10 C           3.6115    0.0922   -0.5157 C.ar    1  UNL1       -0.0235
     11 C           3.1379    1.0260    0.3764 C.ar    1  UNL1        0.0922
     12 H          -0.0210   -1.7950   -0.3048 H       1  UNL1        0.0780
     13 H           0.0216   -1.1192    1.3511 H       1  UNL1        0.0780
     14 H          -2.7141    1.8209    0.2172 H       1  UNL1        0.0375
     15 H          -2.7282    1.1637   -1.4420 H       1  UNL1        0.0375
     16 H           2.5545   -1.6961   -1.3619 H       1  UNL1        0.0653
     17 H          -4.7156    0.4344    0.7747 H       1  UNL1        0.0235
     18 H          -5.0389    1.5062   -0.6011 H       1  UNL1        0.0235
     19 H          -4.7278   -0.2194   -0.8697 H       1  UNL1        0.0235
     20 H           4.5959    0.0751   -0.9608 H       1  UNL1        0.0649
     21 H           3.5646    1.9065    0.8341 H       1  UNL1        0.1029
@<TRIPOS>BOND
     1     1     4    1
     2     1     7    1
     3     2     5   ar
     4     2    11   ar
     5     3     7    2
     6     4     5    1
     7     4    12    1
     8     4    13    1
     9     5     8   ar
    10     6     7    1
    11     6     9    1
    12     6    14    1
    13     6    15    1
    14     8    10   ar
    15     8    16    1
    16     9    17    1
    17     9    18    1
    18     9    19    1
    19    10    11   ar
    20    10    20    1
    21    11    21    1
