@<TRIPOS>MOLECULE
12309055
 101 105 0 0 0
SMALL
GASTEIGER

@<TRIPOS>ATOM
      1 O          -4.4362   -0.0515   -0.3866 O.3     1  UNL1       -0.3451
      2 O          -6.5420    0.9634    0.0087 O.3     1  UNL1       -0.3405
      3 O          -3.9564    1.7540   -2.4806 O.3     1  UNL1       -0.3841
      4 O          -4.4139    4.2972   -1.1775 O.3     1  UNL1       -0.3864
      5 O          -5.1348    3.9837    1.5855 O.3     1  UNL1       -0.3865
      6 O          -7.6620    0.6507    2.4786 O.3     1  UNL1       -0.3924
      7 C           2.3148   -1.1014   -0.1091 C.3     1  UNL1       -0.0259
      8 C           1.8599   -2.4708    0.4511 C.3     1  UNL1       -0.0320
      9 C           0.3507   -2.6966    0.6039 C.3     1  UNL1       -0.0307
     10 C          -0.3535   -2.4041   -0.7565 C.3     1  UNL1       -0.0285
     11 C           3.8409   -1.3879   -0.1735 C.3     1  UNL1       -0.0328
     12 C           1.6264   -0.8981   -1.4630 C.3     1  UNL1       -0.0468
     13 C          -1.9180   -2.6510   -0.6753 C.3     1  UNL1       -0.0078
     14 C           2.7908   -2.7134    1.6327 C.3     1  UNL1       -0.0492
     15 C           0.0935   -1.0419   -1.3521 C.3     1  UNL1       -0.0486
     16 C           4.1302   -2.1062    1.1689 C.3     1  UNL1       -0.0492
     17 C          -0.2962   -1.9952    1.8022 C.3     1  UNL1       -0.0311
     18 C           4.7656   -0.2044   -0.4199 C.3     1  UNL1       -0.0405
     19 C           2.0453    0.1372    0.7766 C.3     1  UNL1       -0.0590
     20 C          -2.5270   -2.1894    0.6475 C.2     1  UNL1       -0.0648
     21 C          -2.6524   -1.9509   -1.8551 C.3     1  UNL1       -0.0413
     22 C          -1.7838   -1.8904    1.7254 C.2     1  UNL1       -0.0839
     23 C          -2.1516   -4.1840   -0.7814 C.3     1  UNL1       -0.0556
     24 C          -4.0406   -2.1333    0.7408 C.3     1  UNL1       -0.0047
     25 C          -4.1804   -2.0181   -1.7813 C.3     1  UNL1       -0.0254
     26 C           6.2359   -0.6736   -0.4196 C.3     1  UNL1       -0.0499
     27 C          -4.6938   -1.4527   -0.4596 C.3     1  UNL1        0.0655
     28 C           4.3858    0.4963   -1.7288 C.3     1  UNL1       -0.0621
     29 C           7.2909    0.3948   -0.7505 C.3     1  UNL1       -0.0497
     30 C           7.4107    1.5749    0.2487 C.3     1  UNL1       -0.0389
     31 C          -5.5099    0.7035   -0.9449 C.3     1  UNL1        0.1882
     32 C           8.4246    2.6614   -0.2327 C.3     1  UNL1       -0.0439
     33 C           7.7144    1.0507    1.6740 C.3     1  UNL1       -0.0528
     34 C          -5.0378    2.0072   -1.5906 C.3     1  UNL1        0.1341
     35 C           8.0586    3.2267   -1.6110 C.3     1  UNL1       -0.0624
     36 C           9.8819    2.1923   -0.2408 C.3     1  UNL1       -0.0624
     37 C          -4.6023    3.0301   -0.5432 C.3     1  UNL1        0.1141
     38 C           7.7783    2.1326    2.7439 C.3     1  UNL1       -0.0650
     39 C          -6.1249    1.8234    1.0753 C.3     1  UNL1        0.1130
     40 C          -5.6770    3.1879    0.5342 C.3     1  UNL1        0.1119
     41 C          -7.3049    1.9469    2.0354 C.3     1  UNL1        0.0730
     42 H           2.1541   -3.2302   -0.2961 H       1  UNL1        0.0309
     43 H           0.2299   -3.7731    0.7953 H       1  UNL1        0.0309
     44 H           0.0372   -3.1459   -1.4710 H       1  UNL1        0.0312
     45 H           4.0169   -2.1219   -0.9757 H       1  UNL1        0.0309
     46 H           1.9957   -1.6312   -2.1915 H       1  UNL1        0.0271
     47 H           1.8106    0.0886   -1.8896 H       1  UNL1        0.0271
     48 H           2.4429   -2.2123    2.5419 H       1  UNL1        0.0268
     49 H           2.8917   -3.7797    1.8590 H       1  UNL1        0.0268
     50 H          -0.2946   -0.9401   -2.3721 H       1  UNL1        0.0268
     51 H          -0.3324   -0.2182   -0.7698 H       1  UNL1        0.0268
     52 H           4.8818   -2.8919    1.0338 H       1  UNL1        0.0268
     53 H           4.5028   -1.4172    1.9356 H       1  UNL1        0.0268
     54 H          -0.0427   -2.5604    2.7086 H       1  UNL1        0.0310
     55 H           0.0900   -0.9928    1.9694 H       1  UNL1        0.0310
     56 H           4.6694    0.5222    0.3950 H       1  UNL1        0.0301
     57 H           0.9854    0.3888    0.8377 H       1  UNL1        0.0235
     58 H           2.5151    1.0396    0.3753 H       1  UNL1        0.0235
     59 H           2.4135    0.0108    1.7989 H       1  UNL1        0.0235
     60 H          -2.3216   -2.3803   -2.8092 H       1  UNL1        0.0274
     61 H          -2.3948   -0.8857   -1.8832 H       1  UNL1        0.0274
     62 H          -2.2770   -1.5707    2.6408 H       1  UNL1        0.0572
     63 H          -1.7606   -4.5741   -1.7283 H       1  UNL1        0.0238
     64 H          -3.2113   -4.4548   -0.7376 H       1  UNL1        0.0238
     65 H          -1.6567   -4.7282    0.0303 H       1  UNL1        0.0238
     66 H          -4.4176   -3.1604    0.8216 H       1  UNL1        0.0335
     67 H          -4.3479   -1.6099    1.6554 H       1  UNL1        0.0335
     68 H          -4.5200   -3.0525   -1.9022 H       1  UNL1        0.0290
     69 H          -4.5880   -1.4531   -2.6272 H       1  UNL1        0.0290
     70 H           6.4927   -1.1489    0.5319 H       1  UNL1        0.0268
     71 H           6.3419   -1.4667   -1.1733 H       1  UNL1        0.0268
     72 H          -5.7744   -1.6348   -0.3814 H       1  UNL1        0.0600
     73 H           3.4876    1.1035   -1.6156 H       1  UNL1        0.0233
     74 H           4.2535   -0.2143   -2.5507 H       1  UNL1        0.0233
     75 H           5.1429    1.2190   -2.0427 H       1  UNL1        0.0233
     76 H           7.1304    0.7553   -1.7689 H       1  UNL1        0.0268
     77 H           8.2586   -0.1230   -0.7846 H       1  UNL1        0.0268
     78 H           6.4299    2.0679    0.2896 H       1  UNL1        0.0303
     79 H          -5.9753    0.1220   -1.7508 H       1  UNL1        0.0937
     80 H           8.3584    3.5059    0.4651 H       1  UNL1        0.0298
     81 H           8.6443    0.4710    1.6829 H       1  UNL1        0.0265
     82 H           6.9198    0.3629    1.9831 H       1  UNL1        0.0265
     83 H          -5.8556    2.4386   -2.1820 H       1  UNL1        0.0671
     84 H           7.0005    3.5050   -1.6529 H       1  UNL1        0.0232
     85 H           8.2646    2.5159   -2.4171 H       1  UNL1        0.0232
     86 H           8.6459    4.1283   -1.8183 H       1  UNL1        0.0232
     87 H          10.5432    3.0070   -0.5565 H       1  UNL1        0.0232
     88 H          10.0356    1.3582   -0.9324 H       1  UNL1        0.0232
     89 H          10.2120    1.8788    0.7535 H       1  UNL1        0.0232
     90 H          -3.6358    2.7581   -0.1031 H       1  UNL1        0.0648
     91 H           6.8767    2.7530    2.7292 H       1  UNL1        0.0230
     92 H           8.6498    2.7800    2.6127 H       1  UNL1        0.0230
     93 H           7.8576    1.6746    3.7354 H       1  UNL1        0.0230
     94 H          -5.3033    1.3349    1.6162 H       1  UNL1        0.0647
     95 H          -6.5393    3.7275    0.1223 H       1  UNL1        0.0647
     96 H          -4.2580    1.0947   -3.1285 H       1  UNL1        0.2101
     97 H          -8.1751    2.3783    1.5296 H       1  UNL1        0.0584
     98 H          -7.0503    2.5609    2.9046 H       1  UNL1        0.0584
     99 H          -5.2572    4.5618   -1.5830 H       1  UNL1        0.2100
    100 H          -4.8605    4.8321    1.1973 H       1  UNL1        0.2100
    101 H          -8.4154    0.7521    3.0849 H       1  UNL1        0.2095
@<TRIPOS>BOND
     1     1    27    1
     2     1    31    1
     3     2    31    1
     4     2    39    1
     5     3    34    1
     6     3    96    1
     7     4    37    1
     8     4    99    1
     9     5    40    1
    10     5   100    1
    11     6    41    1
    12     6   101    1
    13     7     8    1
    14     7    11    1
    15     7    12    1
    16     7    19    1
    17     8     9    1
    18     8    14    1
    19     8    42    1
    20     9    10    1
    21     9    17    1
    22     9    43    1
    23    10    13    1
    24    10    15    1
    25    10    44    1
    26    11    16    1
    27    11    18    1
    28    11    45    1
    29    12    15    1
    30    12    46    1
    31    12    47    1
    32    13    20    1
    33    13    21    1
    34    13    23    1
    35    14    16    1
    36    14    48    1
    37    14    49    1
    38    15    50    1
    39    15    51    1
    40    16    52    1
    41    16    53    1
    42    17    22    1
    43    17    54    1
    44    17    55    1
    45    18    26    1
    46    18    28    1
    47    18    56    1
    48    19    57    1
    49    19    58    1
    50    19    59    1
    51    20    22    2
    52    20    24    1
    53    21    25    1
    54    21    60    1
    55    21    61    1
    56    22    62    1
    57    23    63    1
    58    23    64    1
    59    23    65    1
    60    24    27    1
    61    24    66    1
    62    24    67    1
    63    25    27    1
    64    25    68    1
    65    25    69    1
    66    26    29    1
    67    26    70    1
    68    26    71    1
    69    27    72    1
    70    28    73    1
    71    28    74    1
    72    28    75    1
    73    29    30    1
    74    29    76    1
    75    29    77    1
    76    30    32    1
    77    30    33    1
    78    30    78    1
    79    31    34    1
    80    31    79    1
    81    32    35    1
    82    32    36    1
    83    32    80    1
    84    33    38    1
    85    33    81    1
    86    33    82    1
    87    34    37    1
    88    34    83    1
    89    35    84    1
    90    35    85    1
    91    35    86    1
    92    36    87    1
    93    36    88    1
    94    36    89    1
    95    37    40    1
    96    37    90    1
    97    38    91    1
    98    38    92    1
    99    38    93    1
   100    39    40    1
   101    39    41    1
   102    39    94    1
   103    40    95    1
   104    41    97    1
   105    41    98    1
