@<TRIPOS>MOLECULE
8815
 23 23 0 0 0
SMALL
GASTEIGER

@<TRIPOS>ATOM
      1 O          -3.1554   -0.1779    0.3546 O.3     1  UNL1       -0.4951
      2 C           0.9199   -0.2921   -0.4248 C.ar    1  UNL1       -0.0434
      3 C           2.3838   -0.3334   -0.7050 C.3     1  UNL1       -0.0097
      4 C           0.2531   -1.4508   -0.0267 C.ar    1  UNL1       -0.0548
      5 C           0.2173    0.9051   -0.5609 C.ar    1  UNL1       -0.0548
      6 C          -1.8192   -0.2150    0.0992 C.ar    1  UNL1        0.1201
      7 C          -1.1164   -1.4122    0.2351 C.ar    1  UNL1       -0.0197
      8 C          -1.1523    0.9439   -0.2989 C.ar    1  UNL1       -0.0197
      9 C           3.2258   -0.0449    0.5108 C.2     1  UNL1       -0.0868
     10 C          -3.8124    1.0787    0.1960 C.3     1  UNL1        0.0788
     11 C           4.0557    0.9986    0.6206 C.2     1  UNL1       -0.1023
     12 H           2.6609   -1.3231   -1.0911 H       1  UNL1        0.0355
     13 H           2.6223    0.3657   -1.5176 H       1  UNL1        0.0355
     14 H           0.7888   -2.3898    0.0846 H       1  UNL1        0.0622
     15 H           0.7263    1.8147   -0.8692 H       1  UNL1        0.0622
     16 H          -1.6304   -2.3179    0.5451 H       1  UNL1        0.0654
     17 H          -1.6364    1.9064   -0.4239 H       1  UNL1        0.0654
     18 H           3.1598   -0.7438    1.3413 H       1  UNL1        0.0570
     19 H          -3.7717    1.4259   -0.8420 H       1  UNL1        0.0660
     20 H          -3.4276    1.8255    0.8989 H       1  UNL1        0.0660
     21 H          -4.8686    0.9243    0.4402 H       1  UNL1        0.0660
     22 H           4.6400    1.1435    1.5226 H       1  UNL1        0.0532
     23 H           4.1656    1.7218   -0.1798 H       1  UNL1        0.0532
@<TRIPOS>BOND
     1     1     6    1
     2     1    10    1
     3     2     3    1
     4     2     4   ar
     5     2     5   ar
     6     3     9    1
     7     3    12    1
     8     3    13    1
     9     4     7   ar
    10     4    14    1
    11     5     8   ar
    12     5    15    1
    13     6     7   ar
    14     6     8   ar
    15     7    16    1
    16     8    17    1
    17     9    11    2
    18     9    18    1
    19    10    19    1
    20    10    20    1
    21    10    21    1
    22    11    22    1
    23    11    23    1
