@<TRIPOS>MOLECULE
7650
 27 27 0 0 0
SMALL
GASTEIGER

@<TRIPOS>ATOM
      1 O          -0.7076   -0.0743    0.0024 O.3     1  UNL1       -0.4599
      2 O          -2.3356   -1.7090    0.0030 O.2     1  UNL1       -0.2508
      3 C          -2.9361    0.6479    0.0035 C.3     1  UNL1        0.0447
      4 C          -4.3993    0.2129   -0.0216 C.3     1  UNL1       -0.0458
      5 C           0.3075   -1.0833    0.0011 C.3     1  UNL1        0.1175
      6 C           1.6548   -0.4226    0.0004 C.ar    1  UNL1       -0.0103
      7 C          -1.9940   -0.5344    0.0033 C.2     1  UNL1        0.3074
      8 C          -5.3369    1.4087    0.0117 C.3     1  UNL1       -0.0648
      9 C           2.2717   -0.1185   -1.2081 C.ar    1  UNL1       -0.0554
     10 C           2.2740   -0.1200    1.2080 C.ar    1  UNL1       -0.0554
     11 C           3.5239    0.4958   -1.2090 C.ar    1  UNL1       -0.0614
     12 C           3.5262    0.4945    1.2070 C.ar    1  UNL1       -0.0614
     13 C           4.1512    0.8024   -0.0016 C.ar    1  UNL1       -0.0617
     14 H          -2.7404    1.2381    0.9058 H       1  UNL1        0.0377
     15 H          -2.7182    1.2604   -0.8786 H       1  UNL1        0.0377
     16 H          -4.5975   -0.3795   -0.9228 H       1  UNL1        0.0268
     17 H          -4.6121   -0.4360    0.8364 H       1  UNL1        0.0268
     18 H           0.1965   -1.7192   -0.8862 H       1  UNL1        0.0749
     19 H           0.1980   -1.7200    0.8880 H       1  UNL1        0.0749
     20 H          -6.3788    1.0741   -0.0083 H       1  UNL1        0.0230
     21 H          -5.1872    1.9994    0.9210 H       1  UNL1        0.0230
     22 H          -5.1725    2.0601   -0.8527 H       1  UNL1        0.0230
     23 H           1.7911   -0.3508   -2.1544 H       1  UNL1        0.0621
     24 H           1.7954   -0.3534    2.1550 H       1  UNL1        0.0621
     25 H           4.0103    0.7361   -2.1499 H       1  UNL1        0.0618
     26 H           4.0146    0.7338    2.1470 H       1  UNL1        0.0618
     27 H           5.1261    1.2811   -0.0022 H       1  UNL1        0.0618
@<TRIPOS>BOND
     1     1     5    1
     2     1     7    1
     3     2     7    2
     4     3     4    1
     5     3     7    1
     6     3    14    1
     7     3    15    1
     8     4     8    1
     9     4    16    1
    10     4    17    1
    11     5     6    1
    12     5    18    1
    13     5    19    1
    14     6     9   ar
    15     6    10   ar
    16     8    20    1
    17     8    21    1
    18     8    22    1
    19     9    11   ar
    20     9    23    1
    21    10    12   ar
    22    10    24    1
    23    11    13   ar
    24    11    25    1
    25    12    13   ar
    26    12    26    1
    27    13    27    1
