@<TRIPOS>MOLECULE
5352470
 40 41 0 0 0
SMALL
GASTEIGER

@<TRIPOS>ATOM
      1 O           0.3149    2.9196    0.1589 O.3     1  UNL1       -0.3650
      2 C          -0.6034    1.8559   -0.1270 C.3     1  UNL1        0.0935
      3 C           0.7518    1.5962    0.5064 C.3     1  UNL1        0.0889
      4 C           1.9295    1.1230   -0.3072 C.3     1  UNL1       -0.0153
      5 C          -1.8601    1.9061    0.6966 C.3     1  UNL1       -0.0181
      6 C           2.3227   -0.3688   -0.0734 C.3     1  UNL1       -0.0144
      7 C          -0.7971    1.6956   -1.5994 C.3     1  UNL1       -0.0333
      8 C          -2.7767    0.6926    0.4684 C.3     1  UNL1       -0.0318
      9 C           3.3682   -0.7691   -1.1338 C.3     1  UNL1       -0.0563
     10 C           2.9759   -0.5279    1.3149 C.3     1  UNL1       -0.0563
     11 C           1.0913   -1.2340   -0.2807 C.2     1  UNL1       -0.0819
     12 C          -2.0615   -0.5871    0.7902 C.2     1  UNL1       -0.0846
     13 C           0.5365   -2.1040    0.5818 C.2     1  UNL1       -0.0834
     14 C          -1.8632   -1.6509   -0.0153 C.2     1  UNL1       -0.0728
     15 C          -0.8385   -2.7015    0.3852 C.3     1  UNL1       -0.0138
     16 C          -2.4903   -1.8455   -1.3656 C.3     1  UNL1       -0.0435
     17 H           0.8196    1.3737    1.5615 H       1  UNL1        0.0625
     18 H           1.7652    1.2884   -1.3772 H       1  UNL1        0.0299
     19 H           2.7871    1.7593   -0.0495 H       1  UNL1        0.0299
     20 H          -2.4172    2.8183    0.4489 H       1  UNL1        0.0297
     21 H          -1.6097    1.9790    1.7630 H       1  UNL1        0.0297
     22 H          -0.8376    0.6423   -1.8843 H       1  UNL1        0.0258
     23 H          -1.7344    2.1636   -1.9212 H       1  UNL1        0.0258
     24 H          -0.0075    2.1761   -2.1867 H       1  UNL1        0.0258
     25 H          -3.1598    0.7099   -0.5548 H       1  UNL1        0.0308
     26 H          -3.6470    0.7797    1.1294 H       1  UNL1        0.0308
     27 H           2.9730   -0.6632   -2.1512 H       1  UNL1        0.0238
     28 H           4.2639   -0.1415   -1.0612 H       1  UNL1        0.0238
     29 H           3.6817   -1.8125   -1.0095 H       1  UNL1        0.0238
     30 H           3.3374   -1.5513    1.4709 H       1  UNL1        0.0238
     31 H           3.8392    0.1393    1.4210 H       1  UNL1        0.0238
     32 H           2.2808   -0.2950    2.1282 H       1  UNL1        0.0238
     33 H           0.5796   -1.0672   -1.2272 H       1  UNL1        0.0574
     34 H          -1.5642   -0.5856    1.7605 H       1  UNL1        0.0572
     35 H           1.0147   -2.3204    1.5321 H       1  UNL1        0.0572
     36 H          -0.7771   -3.5067   -0.3563 H       1  UNL1        0.0352
     37 H          -1.1657   -3.1713    1.3213 H       1  UNL1        0.0352
     38 H          -1.7319   -1.7846   -2.1523 H       1  UNL1        0.0274
     39 H          -3.2713   -1.1162   -1.5909 H       1  UNL1        0.0274
     40 H          -2.9591   -2.8342   -1.4173 H       1  UNL1        0.0274
@<TRIPOS>BOND
     1     1     2    1
     2     1     3    1
     3     2     3    1
     4     2     5    1
     5     2     7    1
     6     3     4    1
     7     3    17    1
     8     4     6    1
     9     4    18    1
    10     4    19    1
    11     5     8    1
    12     5    20    1
    13     5    21    1
    14     6     9    1
    15     6    10    1
    16     6    11    1
    17     7    22    1
    18     7    23    1
    19     7    24    1
    20     8    12    1
    21     8    25    1
    22     8    26    1
    23     9    27    1
    24     9    28    1
    25     9    29    1
    26    10    30    1
    27    10    31    1
    28    10    32    1
    29    11    13    2
    30    11    33    1
    31    12    14    2
    32    12    34    1
    33    13    15    1
    34    13    35    1
    35    14    15    1
    36    14    16    1
    37    15    36    1
    38    15    37    1
    39    16    38    1
    40    16    39    1
    41    16    40    1
