@<TRIPOS>MOLECULE
5280961
 30 32 0 0 0
SMALL
GASTEIGER

@<TRIPOS>ATOM
      1 O           1.2051    2.0344   -0.0191 O.2     1  UNL1       -0.4618
      2 O           2.3770   -2.6680   -0.0009 O.3     1  UNL1       -0.5058
      3 O          -0.0855   -1.8360   -0.0685 O.2     1  UNL1       -0.2863
      4 O           5.7528    0.6696    0.0402 O.3     1  UNL1       -0.5065
      5 O          -6.2316   -0.2771    0.0415 O.3     1  UNL1       -0.5068
      6 C           1.7278   -0.3357   -0.0110 C.ar    1  UNL1        0.1060
      7 C          -0.6569    0.4751   -0.0269 C.ar    1  UNL1        0.0644
      8 C           2.1110    1.0050   -0.0063 C.ar    1  UNL1        0.1454
      9 C           0.2923   -0.6720   -0.0338 C.ar    1  UNL1        0.2037
     10 C          -2.1156    0.2792   -0.0089 C.ar    1  UNL1       -0.0110
     11 C           2.6957   -1.3435    0.0017 C.ar    1  UNL1        0.1347
     12 C          -0.1296    1.7087   -0.0190 C.ar    1  UNL1        0.1038
     13 C           3.4639    1.3457    0.0107 C.ar    1  UNL1        0.0231
     14 C           4.0482   -1.0002    0.0194 C.ar    1  UNL1        0.0223
     15 C           4.4317    0.3413    0.0237 C.ar    1  UNL1        0.1239
     16 C          -2.8266    0.2009   -1.2082 C.ar    1  UNL1       -0.0504
     17 C          -2.7928    0.1698    1.2074 C.ar    1  UNL1       -0.0504
     18 C          -4.2089    0.0143   -1.1914 C.ar    1  UNL1       -0.0196
     19 C          -4.1749   -0.0169    1.2242 C.ar    1  UNL1       -0.0196
     20 C          -4.8831   -0.0945    0.0249 C.ar    1  UNL1        0.1169
     21 H          -0.7215    2.6158   -0.0091 H       1  UNL1        0.1037
     22 H           3.7649    2.3903    0.0139 H       1  UNL1        0.0691
     23 H           4.8016   -1.7845    0.0296 H       1  UNL1        0.0691
     24 H          -2.3152    0.2826   -2.1644 H       1  UNL1        0.0625
     25 H          -2.2551    0.2272    2.1508 H       1  UNL1        0.0625
     26 H          -4.7488   -0.0450   -2.1326 H       1  UNL1        0.0654
     27 H          -4.6946   -0.1015    2.1747 H       1  UNL1        0.0654
     28 H           1.4152   -2.7879    0.0091 H       1  UNL1        0.2922
     29 H           6.2809   -0.1471    0.0473 H       1  UNL1        0.2921
     30 H          -6.5567   -0.3074   -0.8746 H       1  UNL1        0.2921
@<TRIPOS>BOND
     1     1     8   ar
     2     1    12   ar
     3     2    11    1
     4     2    28    1
     5     3     9    2
     6     4    15    1
     7     4    29    1
     8     5    20    1
     9     5    30    1
    10     6     8   ar
    11     6     9   ar
    12     6    11   ar
    13     7     9   ar
    14     7    10    1
    15     7    12   ar
    16     8    13   ar
    17    10    16   ar
    18    10    17   ar
    19    11    14   ar
    20    12    21    1
    21    13    15   ar
    22    13    22    1
    23    14    15   ar
    24    14    23    1
    25    16    18   ar
    26    16    24    1
    27    17    19   ar
    28    17    25    1
    29    18    20   ar
    30    18    26    1
    31    19    20   ar
    32    19    27    1
