@<TRIPOS>MOLECULE
443639
 34 36 0 0 0
SMALL
GASTEIGER

@<TRIPOS>ATOM
      1 O           0.1900    0.7318   -0.1330 O.3     1  UNL1       -0.4811
      2 O          -0.3133   -1.4736    1.6496 O.3     1  UNL1       -0.3875
      3 O           4.1282   -2.0892   -0.0497 O.3     1  UNL1       -0.5063
      4 O           4.5166    2.6533   -0.0412 O.3     1  UNL1       -0.5065
      5 O          -6.0952    0.7549    0.2110 O.3     1  UNL1       -0.5068
      6 C          -0.1779   -1.6756    0.2422 C.3     1  UNL1        0.1004
      7 C          -0.5971   -0.4081   -0.5142 C.3     1  UNL1        0.1512
      8 C           1.2792   -2.0008   -0.0804 C.3     1  UNL1        0.0092
      9 C           2.1253   -0.7562   -0.0765 C.ar    1  UNL1        0.0384
     10 C           1.5441    0.5177   -0.1110 C.ar    1  UNL1        0.1317
     11 C          -2.0693   -0.0961   -0.3199 C.ar    1  UNL1       -0.0046
     12 C           3.5222   -0.8669   -0.0583 C.ar    1  UNL1        0.1270
     13 C           2.3472    1.6609   -0.0859 C.ar    1  UNL1        0.0221
     14 C          -3.0146   -0.6312   -1.1935 C.ar    1  UNL1       -0.0515
     15 C          -2.4740    0.7242    0.7320 C.ar    1  UNL1       -0.0515
     16 C           4.3231    0.2757   -0.0475 C.ar    1  UNL1        0.0218
     17 C           3.7355    1.5388   -0.0570 C.ar    1  UNL1        0.1238
     18 C          -4.3680   -0.3452   -1.0148 C.ar    1  UNL1       -0.0198
     19 C          -3.8275    1.0101    0.9108 C.ar    1  UNL1       -0.0198
     20 C          -4.7745    0.4755    0.0373 C.ar    1  UNL1        0.1169
     21 H          -0.8052   -2.5339   -0.0261 H       1  UNL1        0.0637
     22 H          -0.4341   -0.5539   -1.5923 H       1  UNL1        0.0811
     23 H           1.3427   -2.4533   -1.0774 H       1  UNL1        0.0342
     24 H           1.6639   -2.7151    0.6572 H       1  UNL1        0.0342
     25 H           1.8843    2.6450   -0.0960 H       1  UNL1        0.0691
     26 H          -1.2619   -1.4877    1.8607 H       1  UNL1        0.2100
     27 H          -2.7107   -1.2739   -2.0153 H       1  UNL1        0.0623
     28 H          -1.7557    1.1450    1.4301 H       1  UNL1        0.0623
     29 H           5.4068    0.1893   -0.0297 H       1  UNL1        0.0691
     30 H          -5.1011   -0.7651   -1.6981 H       1  UNL1        0.0654
     31 H          -4.1315    1.6493    1.7354 H       1  UNL1        0.0654
     32 H           5.0930   -1.9676   -0.0372 H       1  UNL1        0.2921
     33 H           3.9443    3.4398   -0.0517 H       1  UNL1        0.2921
     34 H          -6.1951    1.3359    0.9846 H       1  UNL1        0.2921
@<TRIPOS>BOND
     1     1     7    1
     2     1    10    1
     3     2     6    1
     4     2    26    1
     5     3    12    1
     6     3    32    1
     7     4    17    1
     8     4    33    1
     9     5    20    1
    10     5    34    1
    11     6     7    1
    12     6     8    1
    13     6    21    1
    14     7    11    1
    15     7    22    1
    16     8     9    1
    17     8    23    1
    18     8    24    1
    19     9    10   ar
    20     9    12   ar
    21    10    13   ar
    22    11    14   ar
    23    11    15   ar
    24    12    16   ar
    25    13    17   ar
    26    13    25    1
    27    14    18   ar
    28    14    27    1
    29    15    19   ar
    30    15    28    1
    31    16    17   ar
    32    16    29    1
    33    18    20   ar
    34    18    30    1
    35    19    20   ar
    36    19    31    1
