@<TRIPOS>MOLECULE
13894537
 39 40 0 0 0
SMALL
GASTEIGER

@<TRIPOS>ATOM
      1 C          -2.5694    0.2303    0.0553 C.3     1  UNL1       -0.0250
      2 C          -1.5687   -0.7601   -0.4870 C.3     1  UNL1       -0.0283
      3 C          -1.2880    0.7439   -0.5340 C.3     1  UNL1       -0.0139
      4 C          -0.9806   -1.7416    0.5043 C.3     1  UNL1       -0.0455
      5 C          -2.8179    0.3458    1.5235 C.3     1  UNL1       -0.0590
      6 C          -3.8124    0.4307   -0.7489 C.3     1  UNL1       -0.0590
      7 C          -0.2023    1.2476    0.3150 C.2     1  UNL1       -0.0811
      8 C           0.2981   -2.4583    0.0302 C.3     1  UNL1       -0.0317
      9 C           1.0029    1.7129   -0.0779 C.2     1  UNL1       -0.0760
     10 C           1.5027   -1.5538   -0.1539 C.2     1  UNL1       -0.0765
     11 C           2.1536    1.6799    0.9151 C.3     1  UNL1       -0.0286
     12 C           2.9292    0.3388    0.8273 C.3     1  UNL1       -0.0308
     13 C           1.3671    2.0892   -1.4857 C.3     1  UNL1       -0.0438
     14 C           1.9870   -0.8424    0.8870 C.2     1  UNL1       -0.0847
     15 C           1.9987   -1.4631   -1.5704 C.3     1  UNL1       -0.0438
     16 H          -1.7881   -1.2438   -1.4335 H       1  UNL1        0.0312
     17 H          -1.3745    1.2292   -1.5008 H       1  UNL1        0.0351
     18 H          -1.7422   -2.5114    0.6854 H       1  UNL1        0.0271
     19 H          -0.7732   -1.2959    1.4796 H       1  UNL1        0.0271
     20 H          -3.2189    1.3397    1.7548 H       1  UNL1        0.0235
     21 H          -3.5727   -0.3879    1.8307 H       1  UNL1        0.0235
     22 H          -1.9616    0.1980    2.1820 H       1  UNL1        0.0235
     23 H          -3.6314    0.3471   -1.8266 H       1  UNL1        0.0235
     24 H          -4.5676   -0.3174   -0.4848 H       1  UNL1        0.0235
     25 H          -4.2364    1.4236   -0.5636 H       1  UNL1        0.0235
     26 H          -0.2909    1.0551    1.3803 H       1  UNL1        0.0575
     27 H           0.0781   -2.9813   -0.9093 H       1  UNL1        0.0310
     28 H           0.5589   -3.2411    0.7542 H       1  UNL1        0.0310
     29 H           2.8357    2.5188    0.7328 H       1  UNL1        0.0313
     30 H           1.7798    1.8126    1.9390 H       1  UNL1        0.0313
     31 H           3.6324    0.2729    1.6660 H       1  UNL1        0.0310
     32 H           3.5419    0.3276   -0.0785 H       1  UNL1        0.0310
     33 H           0.5428    1.9671   -2.1920 H       1  UNL1        0.0274
     34 H           2.2039    1.4872   -1.8501 H       1  UNL1        0.0274
     35 H           1.6697    3.1413   -1.5173 H       1  UNL1        0.0274
     36 H           1.5506   -1.0106    1.8709 H       1  UNL1        0.0572
     37 H           1.2274   -1.0316   -2.2164 H       1  UNL1        0.0274
     38 H           2.2391   -2.4643   -1.9447 H       1  UNL1        0.0274
     39 H           2.9047   -0.8644   -1.6787 H       1  UNL1        0.0274
@<TRIPOS>BOND
     1     1     2    1
     2     1     3    1
     3     1     5    1
     4     1     6    1
     5     2     3    1
     6     2     4    1
     7     2    16    1
     8     3     7    1
     9     3    17    1
    10     4     8    1
    11     4    18    1
    12     4    19    1
    13     5    20    1
    14     5    21    1
    15     5    22    1
    16     6    23    1
    17     6    24    1
    18     6    25    1
    19     7     9    2
    20     7    26    1
    21     8    10    1
    22     8    27    1
    23     8    28    1
    24     9    11    1
    25     9    13    1
    26    10    14    2
    27    10    15    1
    28    11    12    1
    29    11    29    1
    30    11    30    1
    31    12    14    1
    32    12    31    1
    33    12    32    1
    34    13    33    1
    35    13    34    1
    36    13    35    1
    37    14    36    1
    38    15    37    1
    39    15    38    1
    40    15    39    1
