@<TRIPOS>MOLECULE
12306047
 39 40 0 0 0
SMALL
GASTEIGER

@<TRIPOS>ATOM
      1 C           0.0789   -0.7657    0.4721 C.3     1  UNL1       -0.0128
      2 C           1.3425   -0.7740   -0.4223 C.3     1  UNL1       -0.0285
      3 C          -0.2974    0.6798    0.9219 C.3     1  UNL1       -0.0133
      4 C          -1.7204    0.6619    1.5126 C.3     1  UNL1       -0.0423
      5 C           1.1499    0.1315   -1.6504 C.3     1  UNL1       -0.0309
      6 C           2.5956   -0.3728    0.3694 C.3     1  UNL1       -0.0431
      7 C          -0.0996    1.7318   -0.1673 C.2     1  UNL1       -0.0729
      8 C          -1.0636   -1.4880   -0.2176 C.2     1  UNL1       -0.0811
      9 C          -2.7664    0.1807    0.5055 C.3     1  UNL1       -0.0314
     10 C           0.5357    1.4577   -1.3209 C.2     1  UNL1       -0.0845
     11 C          -2.3373   -1.0596   -0.2303 C.2     1  UNL1       -0.0762
     12 C           2.7506   -1.2581    1.6012 C.3     1  UNL1       -0.0624
     13 C           3.8330   -0.4564   -0.5176 C.3     1  UNL1       -0.0624
     14 C          -0.5864    3.1272    0.1133 C.3     1  UNL1       -0.0435
     15 C          -3.4150   -1.7960   -0.9696 C.3     1  UNL1       -0.0438
     16 H           0.2479   -1.3682    1.3716 H       1  UNL1        0.0352
     17 H           1.5019   -1.7971   -0.7943 H       1  UNL1        0.0312
     18 H           0.3808    0.9615    1.7399 H       1  UNL1        0.0351
     19 H          -2.0063    1.6464    1.9000 H       1  UNL1        0.0274
     20 H          -1.7293   -0.0109    2.3815 H       1  UNL1        0.0274
     21 H           0.4760   -0.3678   -2.3595 H       1  UNL1        0.0310
     22 H           2.0738    0.2876   -2.2111 H       1  UNL1        0.0310
     23 H           2.5237    0.6639    0.7196 H       1  UNL1        0.0298
     24 H          -0.8144   -2.4148   -0.7300 H       1  UNL1        0.0575
     25 H          -2.9808    0.9701   -0.2245 H       1  UNL1        0.0310
     26 H          -3.6992   -0.0147    1.0482 H       1  UNL1        0.0310
     27 H           0.6468    2.2348   -2.0731 H       1  UNL1        0.0572
     28 H           2.6458   -2.3201    1.3543 H       1  UNL1        0.0232
     29 H           3.7410   -1.1232    2.0514 H       1  UNL1        0.0232
     30 H           2.0312   -1.0044    2.3853 H       1  UNL1        0.0232
     31 H           3.8797   -1.4056   -1.0621 H       1  UNL1        0.0232
     32 H           4.7455   -0.3799    0.0850 H       1  UNL1        0.0232
     33 H           3.8838    0.3647   -1.2379 H       1  UNL1        0.0232
     34 H          -0.2167    3.4693    1.0855 H       1  UNL1        0.0274
     35 H          -1.6798    3.1653    0.1185 H       1  UNL1        0.0274
     36 H          -0.2375    3.8444   -0.6376 H       1  UNL1        0.0274
     37 H          -4.1910   -2.1329   -0.2747 H       1  UNL1        0.0274
     38 H          -3.0297   -2.6778   -1.4923 H       1  UNL1        0.0274
     39 H          -3.8764   -1.1416   -1.7163 H       1  UNL1        0.0274
@<TRIPOS>BOND
     1     1     2    1
     2     1     3    1
     3     1     8    1
     4     1    16    1
     5     2     5    1
     6     2     6    1
     7     2    17    1
     8     3     4    1
     9     3     7    1
    10     3    18    1
    11     4     9    1
    12     4    19    1
    13     4    20    1
    14     5    10    1
    15     5    21    1
    16     5    22    1
    17     6    12    1
    18     6    13    1
    19     6    23    1
    20     7    10    2
    21     7    14    1
    22     8    11    2
    23     8    24    1
    24     9    11    1
    25     9    25    1
    26     9    26    1
    27    10    27    1
    28    11    15    1
    29    12    28    1
    30    12    29    1
    31    12    30    1
    32    13    31    1
    33    13    32    1
    34    13    33    1
    35    14    34    1
    36    14    35    1
    37    14    36    1
    38    15    37    1
    39    15    38    1
    40    15    39    1
