@<TRIPOS>MOLECULE
92097
 81 85 0 0 0
SMALL
GASTEIGER

@<TRIPOS>ATOM
      1 O          -6.8139    1.2914   -0.9323 O.3     1  UNL1       -0.3912
      2 C          -1.2095    0.4505    0.2315 C.3     1  UNL1       -0.0262
      3 C          -2.7701    0.6113    0.4905 C.3     1  UNL1       -0.0250
      4 C          -0.5903   -0.9488    0.5562 C.3     1  UNL1       -0.0072
      5 C           1.7322    0.2945    0.0105 C.3     1  UNL1       -0.0072
      6 C          -3.4941   -0.5116   -0.3387 C.3     1  UNL1       -0.0278
      7 C           3.1926   -0.0815    0.5140 C.3     1  UNL1       -0.0258
      8 C           0.8760   -0.9948    0.0237 C.2     1  UNL1       -0.0611
      9 C          -0.3709    1.6303    0.7667 C.3     1  UNL1       -0.0481
     10 C          -1.4679   -2.0359   -0.1388 C.3     1  UNL1       -0.0433
     11 C           3.8583   -1.3268   -0.1781 C.3     1  UNL1       -0.0250
     12 C           1.1125    1.3344    0.9794 C.3     1  UNL1       -0.0433
     13 C          -5.0609   -0.3887   -0.4545 C.3     1  UNL1       -0.0056
     14 C          -2.9799   -1.9046    0.0677 C.3     1  UNL1       -0.0483
     15 C          -3.2315    1.9912   -0.0635 C.3     1  UNL1       -0.0447
     16 C           4.1840    1.0872    0.7924 C.3     1  UNL1       -0.0437
     17 C           2.8367   -2.2126   -0.9378 C.3     1  UNL1       -0.0288
     18 C          -5.4081    1.0458   -0.9562 C.3     1  UNL1        0.0606
     19 C          -3.0989    0.5650    2.0041 C.3     1  UNL1       -0.0590
     20 C          -0.5280   -1.2784    2.0663 C.3     1  UNL1       -0.0556
     21 C           1.4425   -2.1390   -0.4113 C.2     1  UNL1       -0.0832
     22 C          -4.7459    2.1555   -0.1464 C.3     1  UNL1       -0.0258
     23 C           4.9735   -0.9509   -1.1814 C.3     1  UNL1       -0.0466
     24 C           5.3608    1.3483   -0.1773 C.3     1  UNL1       -0.0346
     25 C           1.7463    0.8989   -1.4062 C.3     1  UNL1       -0.0556
     26 C           5.9990    0.0294   -0.6307 C.3     1  UNL1       -0.0473
     27 C           4.4906   -2.2030    0.9422 C.3     1  UNL1       -0.0590
     28 C          -5.5807   -1.3969   -1.5179 C.3     1  UNL1       -0.0572
     29 C          -5.8134   -0.7234    0.8492 C.3     1  UNL1       -0.0572
     30 C           4.9281    2.1854   -1.3939 C.3     1  UNL1       -0.0598
     31 C           6.4310    2.1778    0.5706 C.3     1  UNL1       -0.0598
     32 H          -1.1217    0.5362   -0.8634 H       1  UNL1        0.0314
     33 H          -3.1435   -0.3740   -1.3757 H       1  UNL1        0.0312
     34 H           2.9678   -0.4325    1.5377 H       1  UNL1        0.0315
     35 H          -0.7664    2.0254    1.7069 H       1  UNL1        0.0269
     36 H          -0.4533    2.4592    0.0505 H       1  UNL1        0.0269
     37 H          -1.1807   -3.0385    0.2038 H       1  UNL1        0.0274
     38 H          -1.2817   -2.0128   -1.2220 H       1  UNL1        0.0274
     39 H           1.6345    2.2956    0.9088 H       1  UNL1        0.0274
     40 H           1.2614    1.0079    2.0159 H       1  UNL1        0.0274
     41 H          -3.4494   -2.6795   -0.5467 H       1  UNL1        0.0269
     42 H          -3.2413   -2.1481    1.1006 H       1  UNL1        0.0269
     43 H          -2.8198    2.1368   -1.0712 H       1  UNL1        0.0271
     44 H          -2.8312    2.8049    0.5537 H       1  UNL1        0.0271
     45 H           3.6563    2.0284    0.9661 H       1  UNL1        0.0274
     46 H           4.6321    0.8522    1.7705 H       1  UNL1        0.0274
     47 H           3.1641   -3.2605   -0.9138 H       1  UNL1        0.0313
     48 H           2.7946   -1.9560   -2.0040 H       1  UNL1        0.0313
     49 H          -5.0862    1.1415   -2.0017 H       1  UNL1        0.0599
     50 H          -2.2921    0.9678    2.6208 H       1  UNL1        0.0235
     51 H          -3.3021   -0.4434    2.3669 H       1  UNL1        0.0235
     52 H          -3.9756    1.1634    2.2624 H       1  UNL1        0.0235
     53 H          -1.4947   -1.5876    2.4684 H       1  UNL1        0.0238
     54 H          -0.1832   -0.4382    2.6729 H       1  UNL1        0.0238
     55 H           0.1532   -2.1164    2.2611 H       1  UNL1        0.0238
     56 H           0.8940   -3.0742   -0.4200 H       1  UNL1        0.0572
     57 H          -5.1957    2.2220    0.8501 H       1  UNL1        0.0290
     58 H          -4.9711    3.1240   -0.6126 H       1  UNL1        0.0290
     59 H           4.5350   -0.5329   -2.0942 H       1  UNL1        0.0271
     60 H           5.5000   -1.8588   -1.5051 H       1  UNL1        0.0271
     61 H           2.3377    0.3064   -2.1078 H       1  UNL1        0.0238
     62 H           0.7444    0.9736   -1.8390 H       1  UNL1        0.0238
     63 H           2.1528    1.9144   -1.3943 H       1  UNL1        0.0238
     64 H           6.5396   -0.4361    0.2022 H       1  UNL1        0.0271
     65 H           6.7548    0.2238   -1.4029 H       1  UNL1        0.0271
     66 H           5.1779   -1.6294    1.5724 H       1  UNL1        0.0235
     67 H           5.0517   -3.0450    0.5210 H       1  UNL1        0.0235
     68 H           3.7185   -2.6211    1.5988 H       1  UNL1        0.0235
     69 H          -5.0287   -1.3008   -2.4594 H       1  UNL1        0.0236
     70 H          -5.4946   -2.4337   -1.1776 H       1  UNL1        0.0236
     71 H          -6.6403   -1.2264   -1.7413 H       1  UNL1        0.0236
     72 H          -5.5002   -1.6881    1.2604 H       1  UNL1        0.0236
     73 H          -5.6803    0.0333    1.6227 H       1  UNL1        0.0236
     74 H          -6.8937   -0.7932    0.6728 H       1  UNL1        0.0236
     75 H           5.7975    2.4882   -1.9898 H       1  UNL1        0.0235
     76 H           4.2678    1.6395   -2.0679 H       1  UNL1        0.0235
     77 H           4.4120    3.1002   -1.0818 H       1  UNL1        0.0235
     78 H           6.0208    3.1349    0.9125 H       1  UNL1        0.0235
     79 H           6.8078    1.6437    1.4504 H       1  UNL1        0.0235
     80 H           7.2901    2.3929   -0.0752 H       1  UNL1        0.0235
     81 H          -6.9679    2.1696   -1.3205 H       1  UNL1        0.2098
@<TRIPOS>BOND
     1     1    18    1
     2     1    81    1
     3     2     3    1
     4     2     4    1
     5     2     9    1
     6     2    32    1
     7     3     6    1
     8     3    15    1
     9     3    19    1
    10     4     8    1
    11     4    10    1
    12     4    20    1
    13     5     7    1
    14     5     8    1
    15     5    12    1
    16     5    25    1
    17     6    13    1
    18     6    14    1
    19     6    33    1
    20     7    11    1
    21     7    16    1
    22     7    34    1
    23     8    21    2
    24     9    12    1
    25     9    35    1
    26     9    36    1
    27    10    14    1
    28    10    37    1
    29    10    38    1
    30    11    17    1
    31    11    23    1
    32    11    27    1
    33    12    39    1
    34    12    40    1
    35    13    18    1
    36    13    28    1
    37    13    29    1
    38    14    41    1
    39    14    42    1
    40    15    22    1
    41    15    43    1
    42    15    44    1
    43    16    24    1
    44    16    45    1
    45    16    46    1
    46    17    21    1
    47    17    47    1
    48    17    48    1
    49    18    22    1
    50    18    49    1
    51    19    50    1
    52    19    51    1
    53    19    52    1
    54    20    53    1
    55    20    54    1
    56    20    55    1
    57    21    56    1
    58    22    57    1
    59    22    58    1
    60    23    26    1
    61    23    59    1
    62    23    60    1
    63    24    26    1
    64    24    30    1
    65    24    31    1
    66    25    61    1
    67    25    62    1
    68    25    63    1
    69    26    64    1
    70    26    65    1
    71    27    66    1
    72    27    67    1
    73    27    68    1
    74    28    69    1
    75    28    70    1
    76    28    71    1
    77    29    72    1
    78    29    73    1
    79    29    74    1
    80    30    75    1
    81    30    76    1
    82    30    77    1
    83    31    78    1
    84    31    79    1
    85    31    80    1
