@<TRIPOS>MOLECULE
79035
 26 28 0 0 0
SMALL
GASTEIGER

@<TRIPOS>ATOM
      1 C          -0.1624    0.8826   -0.0003 C.3     1  UNL1       -0.0205
      2 C           1.1315    0.7585    0.7446 C.3     1  UNL1       -0.0312
      3 C           1.1315    0.7582   -0.7451 C.3     1  UNL1       -0.0312
      4 C          -0.8505   -0.4763    0.0000 C.3     1  UNL1       -0.0261
      5 C           0.5039   -1.3026    0.0003 C.3     1  UNL1       -0.0348
      6 C           1.2983   -0.6755    1.1972 C.3     1  UNL1       -0.0461
      7 C           1.2983   -0.6760   -1.1970 C.3     1  UNL1       -0.0461
      8 C          -0.9270    2.1461   -0.0007 C.3     1  UNL1       -0.0585
      9 C          -1.7121   -0.7086   -1.2468 C.3     1  UNL1       -0.0590
     10 C          -1.7113   -0.7065    1.2478 C.3     1  UNL1       -0.0590
     11 H           1.5646    1.5520    1.3216 H       1  UNL1        0.0309
     12 H           1.5646    1.5513   -1.3225 H       1  UNL1        0.0309
     13 H           0.4156   -2.3894    0.0005 H       1  UNL1        0.0306
     14 H           0.8536   -0.8710    2.1747 H       1  UNL1        0.0271
     15 H           2.3495   -0.9812    1.2057 H       1  UNL1        0.0271
     16 H           2.3495   -0.9817   -1.2054 H       1  UNL1        0.0271
     17 H           0.8534   -0.8720   -2.1744 H       1  UNL1        0.0271
     18 H          -0.2668    3.0204   -0.0012 H       1  UNL1        0.0235
     19 H          -1.5658    2.2149   -0.8868 H       1  UNL1        0.0235
     20 H          -1.5656    2.2157    0.8854 H       1  UNL1        0.0235
     21 H          -1.2285   -0.3846   -2.1725 H       1  UNL1        0.0235
     22 H          -1.9689   -1.7685   -1.3476 H       1  UNL1        0.0235
     23 H          -2.6486   -0.1419   -1.1848 H       1  UNL1        0.0235
     24 H          -2.6480   -0.1403    1.1851 H       1  UNL1        0.0235
     25 H          -1.9678   -1.7663    1.3507 H       1  UNL1        0.0235
     26 H          -1.2274   -0.3806    2.1727 H       1  UNL1        0.0235
@<TRIPOS>BOND
     1     1     2    1
     2     1     3    1
     3     1     4    1
     4     1     8    1
     5     2     3    1
     6     2     6    1
     7     2    11    1
     8     3     7    1
     9     3    12    1
    10     4     5    1
    11     4     9    1
    12     4    10    1
    13     5     6    1
    14     5     7    1
    15     5    13    1
    16     6    14    1
    17     6    15    1
    18     7    16    1
    19     7    17    1
    20     8    18    1
    21     8    19    1
    22     8    20    1
    23     9    21    1
    24     9    22    1
    25     9    23    1
    26    10    24    1
    27    10    25    1
    28    10    26    1
