@<TRIPOS>MOLECULE
6989
 25 25 0 0 0
SMALL
GASTEIGER

@<TRIPOS>ATOM
      1 O          -0.4292    2.3458    0.0002 O.3     1  UNL1       -0.5065
      2 C          -2.1355    0.0547    0.0000 C.3     1  UNL1       -0.0181
      3 C          -0.6457   -0.0413    0.0000 C.ar    1  UNL1       -0.0034
      4 C          -2.7641   -0.5675    1.2605 C.3     1  UNL1       -0.0585
      5 C          -2.7643   -0.5674   -1.2605 C.3     1  UNL1       -0.0585
      6 C           0.1430    1.1093   -0.0001 C.ar    1  UNL1        0.1205
      7 C          -0.0435   -1.2995    0.0000 C.ar    1  UNL1       -0.0546
      8 C           2.1358   -0.2566    0.0000 C.ar    1  UNL1       -0.0470
      9 C           1.5336    1.0016    0.0000 C.ar    1  UNL1       -0.0170
     10 C           1.3473   -1.4072    0.0000 C.ar    1  UNL1       -0.0583
     11 C           3.6226   -0.3719   -0.0001 C.3     1  UNL1       -0.0396
     12 H          -2.4660    1.0979    0.0133 H       1  UNL1        0.0345
     13 H          -2.5940   -1.6482    1.3137 H       1  UNL1        0.0235
     14 H          -3.8469   -0.4017    1.2722 H       1  UNL1        0.0235
     15 H          -2.3455   -0.1167    2.1671 H       1  UNL1        0.0235
     16 H          -2.3483   -0.1132   -2.1667 H       1  UNL1        0.0235
     17 H          -3.8475   -0.4038   -1.2701 H       1  UNL1        0.0235
     18 H          -2.5917   -1.6475   -1.3159 H       1  UNL1        0.0235
     19 H          -0.6363   -2.2100    0.0005 H       1  UNL1        0.0622
     20 H           2.1434    1.9020    0.0017 H       1  UNL1        0.0657
     21 H           1.8047   -2.3930    0.0019 H       1  UNL1        0.0620
     22 H           4.0835    0.4669   -0.5326 H       1  UNL1        0.0278
     23 H           3.9984   -0.3845    1.0278 H       1  UNL1        0.0278
     24 H           3.9485   -1.2884   -0.5038 H       1  UNL1        0.0278
     25 H          -1.1636    2.3514   -0.6359 H       1  UNL1        0.2921
@<TRIPOS>BOND
     1     1     6    1
     2     1    25    1
     3     2     3    1
     4     2     4    1
     5     2     5    1
     6     2    12    1
     7     3     6   ar
     8     3     7   ar
     9     4    13    1
    10     4    14    1
    11     4    15    1
    12     5    16    1
    13     5    17    1
    14     5    18    1
    15     6     9   ar
    16     7    10   ar
    17     7    19    1
    18     8     9   ar
    19     8    10   ar
    20     8    11    1
    21     9    20    1
    22    10    21    1
    23    11    22    1
    24    11    23    1
    25    11    24    1
