@<TRIPOS>MOLECULE
12921
 55 55 0 0 0
SMALL
GASTEIGER

@<TRIPOS>ATOM
      1 O          -7.9041    2.3506   -0.0222 O.3     1  UNL1       -0.4806
      2 O          -5.8292    3.2553   -0.2584 O.2     1  UNL1       -0.2510
      3 C           2.5020   -3.6831   -0.0761 C.2     1  UNL1       -0.0660
      4 C           1.2727   -4.1043   -0.0073 C.2     1  UNL1       -0.0660
      5 C           2.2978   -5.0983   -0.0773 C.3     1  UNL1       -0.0100
      6 C           3.5491   -2.7007   -0.1327 C.3     1  UNL1       -0.0312
      7 C          -0.2109   -3.9646    0.0767 C.3     1  UNL1       -0.0312
      8 C           3.0811   -1.2226   -0.0360 C.3     1  UNL1       -0.0493
      9 C          -0.6441   -2.4979    0.0630 C.3     1  UNL1       -0.0493
     10 C           4.2561   -0.2385   -0.0639 C.3     1  UNL1       -0.0528
     11 C          -2.1616   -2.3118    0.1600 C.3     1  UNL1       -0.0528
     12 C           3.7645    1.2098    0.0037 C.3     1  UNL1       -0.0530
     13 C          -2.6027   -0.8491    0.0725 C.3     1  UNL1       -0.0530
     14 C           4.8967    2.2403   -0.0333 C.3     1  UNL1       -0.0531
     15 C          -4.1261   -0.7246    0.1514 C.3     1  UNL1       -0.0526
     16 C           4.4043    3.6886    0.0079 C.3     1  UNL1       -0.0533
     17 C          -4.5725    0.7326    0.0261 C.3     1  UNL1       -0.0430
     18 C           5.5763    4.6706    0.0421 C.3     1  UNL1       -0.0559
     19 C          -6.0946    0.8542    0.0719 C.3     1  UNL1        0.0448
     20 C           5.0945    6.1104    0.1213 C.3     1  UNL1       -0.0653
     21 C          -6.5495    2.2832   -0.0893 C.2     1  UNL1        0.3047
     22 H           2.5304   -5.6307    0.8313 H       1  UNL1        0.0355
     23 H           2.4211   -5.6134   -1.0168 H       1  UNL1        0.0355
     24 H           4.2574   -2.8912    0.6827 H       1  UNL1        0.0310
     25 H           4.1094   -2.8273   -1.0669 H       1  UNL1        0.0310
     26 H          -0.6660   -4.4936   -0.7682 H       1  UNL1        0.0310
     27 H          -0.5620   -4.4477    0.9954 H       1  UNL1        0.0310
     28 H           2.5100   -1.0838    0.8907 H       1  UNL1        0.0268
     29 H           2.3996   -1.0066   -0.8686 H       1  UNL1        0.0268
     30 H          -0.2853   -2.0224   -0.8592 H       1  UNL1        0.0268
     31 H          -0.1677   -1.9648    0.8959 H       1  UNL1        0.0268
     32 H           4.9259   -0.4401    0.7805 H       1  UNL1        0.0265
     33 H           4.8371   -0.3861   -0.9821 H       1  UNL1        0.0265
     34 H          -2.5155   -2.7430    1.1046 H       1  UNL1        0.0265
     35 H          -2.6416   -2.8802   -0.6466 H       1  UNL1        0.0265
     36 H           3.1814    1.3515    0.9222 H       1  UNL1        0.0265
     37 H           3.0835    1.3990   -0.8355 H       1  UNL1        0.0265
     38 H          -2.2458   -0.4166   -0.8700 H       1  UNL1        0.0265
     39 H          -2.1416   -0.2772    0.8866 H       1  UNL1        0.0265
     40 H           5.4921    2.0882   -0.9422 H       1  UNL1        0.0265
     41 H           5.5663    2.0601    0.8170 H       1  UNL1        0.0265
     42 H          -4.5839   -1.3176   -0.6498 H       1  UNL1        0.0265
     43 H          -4.4808   -1.1382    1.1032 H       1  UNL1        0.0265
     44 H           3.7771    3.8350    0.8955 H       1  UNL1        0.0265
     45 H           3.7765    3.8886   -0.8686 H       1  UNL1        0.0265
     46 H          -4.1291    1.3274    0.8344 H       1  UNL1        0.0270
     47 H          -4.1979    1.1526   -0.9158 H       1  UNL1        0.0270
     48 H           6.1931    4.5449   -0.8553 H       1  UNL1        0.0263
     49 H           6.2153    4.4592    0.9075 H       1  UNL1        0.0263
     50 H          -6.5386    0.2629   -0.7368 H       1  UNL1        0.0377
     51 H          -6.4661    0.4814    1.0330 H       1  UNL1        0.0377
     52 H           5.9481    6.7951    0.1430 H       1  UNL1        0.0230
     53 H           4.4763    6.3652   -0.7454 H       1  UNL1        0.0230
     54 H           4.5025    6.2768    1.0269 H       1  UNL1        0.0230
     55 H          -8.2300    3.2702   -0.1250 H       1  UNL1        0.2951
@<TRIPOS>BOND
     1     1    21    1
     2     1    55    1
     3     2    21    2
     4     3     4    2
     5     3     5    1
     6     3     6    1
     7     4     5    1
     8     4     7    1
     9     5    22    1
    10     5    23    1
    11     6     8    1
    12     6    24    1
    13     6    25    1
    14     7     9    1
    15     7    26    1
    16     7    27    1
    17     8    10    1
    18     8    28    1
    19     8    29    1
    20     9    11    1
    21     9    30    1
    22     9    31    1
    23    10    12    1
    24    10    32    1
    25    10    33    1
    26    11    13    1
    27    11    34    1
    28    11    35    1
    29    12    14    1
    30    12    36    1
    31    12    37    1
    32    13    15    1
    33    13    38    1
    34    13    39    1
    35    14    16    1
    36    14    40    1
    37    14    41    1
    38    15    17    1
    39    15    42    1
    40    15    43    1
    41    16    18    1
    42    16    44    1
    43    16    45    1
    44    17    19    1
    45    17    46    1
    46    17    47    1
    47    18    20    1
    48    18    48    1
    49    18    49    1
    50    19    21    1
    51    19    50    1
    52    19    51    1
    53    20    52    1
    54    20    53    1
    55    20    54    1
