@<TRIPOS>MOLECULE
5280805
 73 77 0 0 0
SMALL
GASTEIGER

@<TRIPOS>ATOM
      1 O           0.9151   -0.1224    1.7544 O.3     1  UNL1       -0.3313
      2 O           0.8004    2.5595    1.0179 O.3     1  UNL1       -0.3461
      3 O          -1.3404    3.5102    0.6376 O.3     1  UNL1       -0.3431
      4 O           3.0158    2.1502    3.7129 O.3     1  UNL1       -0.3865
      5 O           4.8927    0.1836    2.7303 O.3     1  UNL1       -0.3864
      6 O           1.1682   -2.3514    1.1129 O.3     1  UNL1       -0.4532
      7 O           3.6097   -2.4618    2.5396 O.3     1  UNL1       -0.3829
      8 O          -0.0283    5.4197   -1.0632 O.3     1  UNL1       -0.3841
      9 O           0.3419    3.6182   -3.1519 O.3     1  UNL1       -0.3864
     10 O          -1.8002    1.8138   -2.6027 O.3     1  UNL1       -0.3866
     11 O          -1.4889   -1.5897   -1.3258 O.2     1  UNL1       -0.4507
     12 O          -1.1239   -2.2225    2.6830 O.2     1  UNL1       -0.2830
     13 O          -3.6961   -1.8590    2.9805 O.3     1  UNL1       -0.5058
     14 O          -6.1692   -0.8904   -0.9552 O.3     1  UNL1       -0.5065
     15 O           3.2656    0.3677   -3.2321 O.3     1  UNL1       -0.5033
     16 O           3.9451   -2.0203   -4.4801 O.3     1  UNL1       -0.5033
     17 C           1.2160    0.9028    2.7027 C.3     1  UNL1        0.1144
     18 C           2.7199    1.1870    2.7050 C.3     1  UNL1        0.1120
     19 C           3.5131   -0.0910    2.9787 C.3     1  UNL1        0.1152
     20 C           3.0507   -1.2336    2.0745 C.3     1  UNL1        0.1454
     21 C           0.5277    4.1316   -0.7940 C.3     1  UNL1        0.1341
     22 C           0.0765    3.7131    0.6041 C.3     1  UNL1        0.1879
     23 C           0.0508    3.1278   -1.8451 C.3     1  UNL1        0.1140
     24 C          -1.4533    2.8807   -1.7234 C.3     1  UNL1        0.1095
     25 C           1.5279   -1.3673    2.0821 C.3     1  UNL1        0.2311
     26 C           0.4085    2.1380    2.3165 C.3     1  UNL1        0.0796
     27 C          -1.8123    2.5152   -0.2765 C.3     1  UNL1        0.0873
     28 C          -3.3207    2.4023   -0.0726 C.3     1  UNL1       -0.0361
     29 C          -0.0704   -2.0952    0.5659 C.ar    1  UNL1        0.2138
     30 C          -0.2634   -1.8822   -0.7485 C.ar    1  UNL1        0.1810
     31 C          -1.2373   -2.0358    1.4789 C.ar    1  UNL1        0.2382
     32 C          -2.5374   -1.7386    0.8583 C.ar    1  UNL1        0.1092
     33 C           0.8392   -1.9149   -1.7260 C.ar    1  UNL1        0.0247
     34 C          -2.5948   -1.5299   -0.5178 C.ar    1  UNL1        0.1465
     35 C          -3.6980   -1.6637    1.6325 C.ar    1  UNL1        0.1348
     36 C          -3.8155   -1.2441   -1.1299 C.ar    1  UNL1        0.0231
     37 C           1.5428   -0.7476   -2.0237 C.ar    1  UNL1       -0.0057
     38 C           1.1798   -3.1132   -2.3539 C.ar    1  UNL1       -0.0473
     39 C          -4.9178   -1.3783    1.0179 C.ar    1  UNL1        0.0223
     40 C          -4.9767   -1.1688   -0.3604 C.ar    1  UNL1        0.1239
     41 C           2.5867   -0.7787   -2.9485 C.ar    1  UNL1        0.1589
     42 C           2.2234   -3.1442   -3.2789 C.ar    1  UNL1       -0.0159
     43 C           2.9270   -1.9769   -3.5761 C.ar    1  UNL1        0.1583
     44 H           0.8810    0.5830    3.6984 H       1  UNL1        0.0647
     45 H           3.0460    1.6070    1.7459 H       1  UNL1        0.0647
     46 H           3.4402   -0.3805    4.0342 H       1  UNL1        0.0648
     47 H           3.4206   -1.0834    1.0531 H       1  UNL1        0.0683
     48 H           1.6173    4.2301   -0.8482 H       1  UNL1        0.0671
     49 H           0.2912    4.5308    1.3033 H       1  UNL1        0.0937
     50 H           0.5944    2.1876   -1.7370 H       1  UNL1        0.0648
     51 H          -2.0034    3.7701   -2.0542 H       1  UNL1        0.0646
     52 H           1.1907   -1.7127    3.0677 H       1  UNL1        0.1084
     53 H          -0.6540    1.8703    2.3174 H       1  UNL1        0.0587
     54 H           0.5692    2.9467    3.0383 H       1  UNL1        0.0587
     55 H          -1.3741    1.5428   -0.0180 H       1  UNL1        0.0621
     56 H          -3.5426    2.1284    0.9648 H       1  UNL1        0.0255
     57 H          -3.7724    1.6575   -0.7298 H       1  UNL1        0.0255
     58 H          -3.8095    3.3663   -0.2526 H       1  UNL1        0.0255
     59 H           2.7336    1.7856    4.5691 H       1  UNL1        0.2100
     60 H           5.1515    0.9212    3.3091 H       1  UNL1        0.2100
     61 H           3.2966   -2.6111    3.4480 H       1  UNL1        0.2102
     62 H          -0.9806    5.3889   -0.8707 H       1  UNL1        0.2101
     63 H          -0.0954    4.4815   -3.2491 H       1  UNL1        0.2100
     64 H          -2.7697    1.7715   -2.6522 H       1  UNL1        0.2100
     65 H          -3.8634   -1.0785   -2.2033 H       1  UNL1        0.0691
     66 H           1.2956    0.1811   -1.5208 H       1  UNL1        0.0662
     67 H           0.6405   -4.0311   -2.1326 H       1  UNL1        0.0626
     68 H          -5.8271   -1.3175    1.6114 H       1  UNL1        0.0691
     69 H           2.4837   -4.0809   -3.7643 H       1  UNL1        0.0655
     70 H          -4.6008   -1.7621    3.3238 H       1  UNL1        0.2922
     71 H          -6.8651   -0.8754   -0.2759 H       1  UNL1        0.2921
     72 H           4.1417    0.1495   -3.5888 H       1  UNL1        0.2923
     73 H           4.1001   -1.1327   -4.8413 H       1  UNL1        0.2923
@<TRIPOS>BOND
     1     1    17    1
     2     1    25    1
     3     2    22    1
     4     2    26    1
     5     3    22    1
     6     3    27    1
     7     4    18    1
     8     4    59    1
     9     5    19    1
    10     5    60    1
    11     6    25    1
    12     6    29    1
    13     7    20    1
    14     7    61    1
    15     8    21    1
    16     8    62    1
    17     9    23    1
    18     9    63    1
    19    10    24    1
    20    10    64    1
    21    11    30   ar
    22    11    34   ar
    23    12    31    2
    24    13    35    1
    25    13    70    1
    26    14    40    1
    27    14    71    1
    28    15    41    1
    29    15    72    1
    30    16    43    1
    31    16    73    1
    32    17    18    1
    33    17    26    1
    34    17    44    1
    35    18    19    1
    36    18    45    1
    37    19    20    1
    38    19    46    1
    39    20    25    1
    40    20    47    1
    41    21    22    1
    42    21    23    1
    43    21    48    1
    44    22    49    1
    45    23    24    1
    46    23    50    1
    47    24    27    1
    48    24    51    1
    49    25    52    1
    50    26    53    1
    51    26    54    1
    52    27    28    1
    53    27    55    1
    54    28    56    1
    55    28    57    1
    56    28    58    1
    57    29    30   ar
    58    29    31   ar
    59    30    33    1
    60    31    32   ar
    61    32    34   ar
    62    32    35   ar
    63    33    37   ar
    64    33    38   ar
    65    34    36   ar
    66    35    39   ar
    67    36    40   ar
    68    36    65    1
    69    37    41   ar
    70    37    66    1
    71    38    42   ar
    72    38    67    1
    73    39    40   ar
    74    39    68    1
    75    41    43   ar
    76    42    43   ar
    77    42    69    1
