@<TRIPOS>MOLECULE
10208
 29 31 0 0 0
SMALL
GASTEIGER

@<TRIPOS>ATOM
      1 O           2.0123   -2.7748   -0.0017 O.3     1  UNL1       -0.5060
      2 O          -0.5239   -2.4151    0.0012 O.2     1  UNL1       -0.2864
      3 O           0.0477    2.8982   -0.0011 O.2     1  UNL1       -0.2866
      4 O          -3.0789   -2.2270    0.0012 O.3     1  UNL1       -0.5060
      5 C           1.1025    0.7994   -0.0005 C.ar    1  UNL1        0.0368
      6 C           0.9532   -0.5891   -0.0008 C.ar    1  UNL1        0.0745
      7 C          -1.5783   -0.3168   -0.0004 C.ar    1  UNL1        0.0745
      8 C          -1.4289    1.0716   -0.0005 C.ar    1  UNL1        0.0366
      9 C          -0.3928   -1.1979   -0.0004 C.2     1  UNL1        0.2015
     10 C          -0.0831    1.6805   -0.0007 C.2     1  UNL1        0.1947
     11 C           2.3838    1.3637    0.0002 C.ar    1  UNL1       -0.0471
     12 C           2.0850   -1.4132   -0.0007 C.ar    1  UNL1        0.1286
     13 C           3.5090    0.5388    0.0004 C.ar    1  UNL1       -0.0463
     14 C          -2.8595   -0.8812    0.0000 C.ar    1  UNL1        0.1283
     15 C           3.3599   -0.8466   -0.0001 C.ar    1  UNL1       -0.0165
     16 C          -2.5608    1.8957   -0.0001 C.ar    1  UNL1       -0.0500
     17 C          -3.9848   -0.0564    0.0006 C.ar    1  UNL1       -0.0194
     18 C          -3.8357    1.3291    0.0006 C.ar    1  UNL1       -0.0576
     19 C           4.8734    1.1412    0.0025 C.3     1  UNL1       -0.0396
     20 H           2.5138    2.4433    0.0028 H       1  UNL1        0.0627
     21 H           4.2424   -1.4825    0.0022 H       1  UNL1        0.0657
     22 H          -2.4713    2.9787    0.0000 H       1  UNL1        0.0625
     23 H          -4.9827   -0.4870    0.0013 H       1  UNL1        0.0654
     24 H          -4.7134    1.9692    0.0011 H       1  UNL1        0.0619
     25 H           4.8828    2.1000   -0.5271 H       1  UNL1        0.0278
     26 H           5.2101    1.3049    1.0310 H       1  UNL1        0.0278
     27 H           5.5947    0.4902   -0.5032 H       1  UNL1        0.0278
     28 H           2.9091   -3.1507   -0.0017 H       1  UNL1        0.2922
     29 H          -2.2407   -2.7125   -0.0011 H       1  UNL1        0.2922
@<TRIPOS>BOND
     1     1    12    1
     2     1    28    1
     3     2     9    2
     4     3    10    2
     5     4    14    1
     6     4    29    1
     7     5     6   ar
     8     5    10    1
     9     5    11   ar
    10     6     9    1
    11     6    12   ar
    12     7     8   ar
    13     7     9    1
    14     7    14   ar
    15     8    10    1
    16     8    16   ar
    17    11    13   ar
    18    11    20    1
    19    12    15   ar
    20    13    15   ar
    21    13    19    1
    22    14    17   ar
    23    15    21    1
    24    16    18   ar
    25    16    22    1
    26    17    18   ar
    27    17    23    1
    28    18    24    1
    29    19    25    1
    30    19    26    1
    31    19    27    1
