@<TRIPOS>MOLECULE
5570
 17 17 0 0 0
SMALL
GASTEIGER

@<TRIPOS>ATOM
      1 O           2.3191    1.5263   -0.0004 O.co2   1  UNL1       -0.5444
      2 O           2.9002   -0.6555    0.0008 O.co2   1  UNL1       -0.5444
      3 N          -1.6924    0.5154   -0.0003 N.ar    1  UNL1       -0.2059
      4 C          -0.4003    0.8705   -0.0006 C.ar    1  UNL1        0.1798
      5 C           0.5884   -0.1029   -0.0004 C.ar    1  UNL1        0.0609
      6 C          -2.0840   -0.7661   -0.0001 C.ar    1  UNL1        0.1710
      7 C           0.2105   -1.4422   -0.0001 C.ar    1  UNL1       -0.0416
      8 C          -2.7112    1.5613    0.0009 C.3     1  UNL1        0.1404
      9 C          -1.1390   -1.7821    0.0000 C.ar    1  UNL1        0.0027
     10 C           2.0086    0.2753    0.0002 C.2     1  UNL1        0.0773
     11 H          -0.1949    1.9342    0.0048 H       1  UNL1        0.1383
     12 H          -3.1486   -0.9672    0.0058 H       1  UNL1        0.1376
     13 H           0.9460   -2.2420    0.0004 H       1  UNL1        0.0628
     14 H          -2.3595    2.4100   -0.5925 H       1  UNL1        0.0993
     15 H          -3.6359    1.1816   -0.4423 H       1  UNL1        0.0993
     16 H          -2.8787    1.8593    1.0393 H       1  UNL1        0.0993
     17 H          -1.4469   -2.8222    0.0016 H       1  UNL1        0.0677
@<TRIPOS>UNITY_ATOM_ATTR
1 1
charge -1
3 1
charge 1
@<TRIPOS>BOND
     1     1    10   ar
     2     2    10   ar
     3     3     4   ar
     4     3     6   ar
     5     3     8    1
     6     4     5   ar
     7     4    11    1
     8     5     7   ar
     9     5    10    1
    10     6     9   ar
    11     6    12    1
    12     7     9   ar
    13     7    13    1
    14     8    14    1
    15     8    15    1
    16     8    16    1
    17     9    17    1
