@<TRIPOS>MOLECULE
40539
 20 20 0 0 0
SMALL
GASTEIGER

@<TRIPOS>ATOM
      1 O          -1.5004   -1.1817    0.0058 O.2     1  UNL1       -0.3161
      2 O           1.3036    0.7851   -1.6634 O.3     1  UNL1       -0.4795
      3 O          -0.4152    1.9382    1.0445 O.2     1  UNL1       -0.2436
      4 OXT         2.9649    1.1423   -0.1603 O.2     1  UNL1       -0.2492
      5 O          -3.5952   -0.7558   -0.8299 O.2     1  UNL1       -0.2209
      6 N          -0.5168   -0.3471    0.5860 N.ar    1  UNL1       -0.1488
      7 N           3.0051   -1.5574    0.3741 N.3     1  UNL1       -0.3169
      8 N          -2.2518    0.9137    0.0590 N.ar    1  UNL1       -0.2398
      9 C           0.7137   -0.9641    1.0071 C.3     1  UNL1        0.0872
     10 CA          1.7557   -0.9760   -0.1123 C.3     1  UNL1        0.1244
     11 C          -0.9922    0.9492    0.6140 C.ar    1  UNL1        0.3606
     12 C           2.0901    0.4178   -0.6163 C.2     1  UNL1        0.3236
     13 C          -2.5614   -0.3642   -0.3083 C.ar    1  UNL1        0.4409
     14 H           1.0907   -0.3717    1.8498 H       1  UNL1        0.0545
     15 H           0.4934   -1.9764    1.3635 H       1  UNL1        0.0545
     16 HA          1.4009   -1.5753   -0.9594 H       1  UNL1        0.0593
     17 H1          3.6615   -1.6570   -0.3997 H       1  UNL1        0.1190
     18 H2          2.8318   -2.5001    0.7210 H       1  UNL1        0.1190
     19 H          -2.8573    1.7176   -0.0590 H       1  UNL1        0.1767
     20 H           1.5245    1.6839   -1.9882 H       1  UNL1        0.2951
@<TRIPOS>BOND
     1     1     6   ar
     2     1    13   ar
     3     2    12    1
     4     2    20    1
     5     3    11    2
     6     4    12    2
     7     5    13    2
     8     6     9    1
     9     6    11   ar
    10     7    10    1
    11     7    17    1
    12     7    18    1
    13     8    11   ar
    14     8    13   ar
    15     8    19    1
    16     9    10    1
    17     9    14    1
    18     9    15    1
    19    10    12    1
    20    10    16    1
