@<TRIPOS>MOLECULE
5317319
 39 38 0 0 0
SMALL
GASTEIGER

@<TRIPOS>ATOM
      1 C           1.3724   -1.2932   -0.5782 C.3     1  UNL1       -0.0286
      2 C           0.3841   -2.3616   -0.1468 C.2     1  UNL1       -0.0762
      3 C           2.3644   -0.8911    0.5220 C.3     1  UNL1       -0.0308
      4 C          -1.3591   -0.6173    0.5504 C.3     1  UNL1       -0.0305
      5 C          -0.8183   -2.0038    0.3450 C.2     1  UNL1       -0.0847
      6 C          -2.1925   -0.1751   -0.6589 C.3     1  UNL1       -0.0248
      7 C           3.3886    0.0989    0.0371 C.2     1  UNL1       -0.0850
      8 C           0.8544   -3.7792   -0.3227 C.3     1  UNL1       -0.0438
      9 C           3.3631    1.4411    0.1440 C.2     1  UNL1       -0.0796
     10 C          -2.8328    1.1816   -0.4557 C.2     1  UNL1       -0.0547
     11 C           4.4242    2.3750   -0.3647 C.3     1  UNL1       -0.0440
     12 C           2.2135    2.1273    0.8327 C.3     1  UNL1       -0.0440
     13 C          -4.1039    1.3018    0.2466 C.2     1  UNL1       -0.0662
     14 C          -2.2131    2.2883   -0.9016 C.2     1  UNL1       -0.0955
     15 C          -4.8450    0.3073    0.7506 C.2     1  UNL1       -0.0985
     16 H           0.8520   -0.4011   -0.9473 H       1  UNL1        0.0313
     17 H           1.9259   -1.6648   -1.4518 H       1  UNL1        0.0313
     18 H           1.8338   -0.5252    1.4072 H       1  UNL1        0.0310
     19 H           2.9077   -1.7804    0.8678 H       1  UNL1        0.0310
     20 H          -0.5576    0.1018    0.7461 H       1  UNL1        0.0311
     21 H          -1.9741   -0.6265    1.4588 H       1  UNL1        0.0311
     22 H          -1.5036   -2.8023    0.6267 H       1  UNL1        0.0572
     23 H          -1.5429   -0.1398   -1.5450 H       1  UNL1        0.0316
     24 H          -2.9543   -0.9250   -0.9070 H       1  UNL1        0.0316
     25 H           4.2397   -0.3472   -0.4760 H       1  UNL1        0.0572
     26 H           0.0989   -4.4978    0.0115 H       1  UNL1        0.0274
     27 H           1.0659   -3.9833   -1.3771 H       1  UNL1        0.0274
     28 H           1.7642   -3.9572    0.2588 H       1  UNL1        0.0274
     29 H           5.2466    1.8290   -0.8386 H       1  UNL1        0.0274
     30 H           4.0057    3.0609   -1.1081 H       1  UNL1        0.0274
     31 H           4.8429    2.9622    0.4587 H       1  UNL1        0.0274
     32 H           1.3596    1.4833    1.0461 H       1  UNL1        0.0274
     33 H           1.8339    2.9383    0.2009 H       1  UNL1        0.0274
     34 H           2.5516    2.5642    1.7783 H       1  UNL1        0.0274
     35 H          -4.4922    2.3121    0.3685 H       1  UNL1        0.0614
     36 H          -1.2582    2.2292   -1.4147 H       1  UNL1        0.0537
     37 H          -2.6346    3.2796   -0.7661 H       1  UNL1        0.0537
     38 H          -5.7810    0.5319    1.2525 H       1  UNL1        0.0535
     39 H          -4.5572   -0.7353    0.6897 H       1  UNL1        0.0535
@<TRIPOS>BOND
     1     1     2    1
     2     1     3    1
     3     1    16    1
     4     1    17    1
     5     2     5    2
     6     2     8    1
     7     3     7    1
     8     3    18    1
     9     3    19    1
    10     4     5    1
    11     4     6    1
    12     4    20    1
    13     4    21    1
    14     5    22    1
    15     6    10    1
    16     6    23    1
    17     6    24    1
    18     7     9    2
    19     7    25    1
    20     8    26    1
    21     8    27    1
    22     8    28    1
    23     9    11    1
    24     9    12    1
    25    10    13    1
    26    10    14    2
    27    11    29    1
    28    11    30    1
    29    11    31    1
    30    12    32    1
    31    12    33    1
    32    12    34    1
    33    13    15    2
    34    13    35    1
    35    14    36    1
    36    14    37    1
    37    15    38    1
    38    15    39    1
