@<TRIPOS>MOLECULE
73170
 81 85 0 0 0
SMALL
GASTEIGER

@<TRIPOS>ATOM
      1 O          -6.7560   -1.4058    0.5429 O.3     1  UNL1       -0.3912
      2 C          -0.4491    0.9760   -0.1012 C.3     1  UNL1       -0.0194
      3 C          -1.1493   -0.3866   -0.4704 C.3     1  UNL1       -0.0257
      4 C          -2.7291   -0.3602   -0.6988 C.3     1  UNL1       -0.0250
      5 C           1.0636    0.6414    0.4458 C.3     1  UNL1       -0.0051
      6 C          -3.3675    0.3657    0.5429 C.3     1  UNL1       -0.0278
      7 C          -1.2852    1.7343    0.9678 C.3     1  UNL1       -0.0463
      8 C           1.8087   -0.2662   -0.5600 C.2     1  UNL1       -0.0632
      9 C           3.3490   -0.3186   -0.5719 C.3     1  UNL1       -0.0111
     10 C          -2.7901    1.7886    0.6936 C.3     1  UNL1       -0.0486
     11 C           3.9583    1.1106   -0.4535 C.3     1  UNL1       -0.0253
     12 C          -4.9331    0.2614    0.6833 C.3     1  UNL1       -0.0056
     13 C           1.8473    1.9627    0.7231 C.3     1  UNL1       -0.0429
     14 C          -0.3559   -1.1267   -1.5712 C.3     1  UNL1       -0.0306
     15 C          -3.2447   -1.8311   -0.7150 C.3     1  UNL1       -0.0447
     16 C           3.3707    1.8152    0.7916 C.3     1  UNL1       -0.0463
     17 C          -0.3757    1.9039   -1.3534 C.3     1  UNL1       -0.0585
     18 C           1.1341   -1.0214   -1.4500 C.2     1  UNL1       -0.0836
     19 C           3.9533   -1.3469    0.4521 C.3     1  UNL1       -0.0343
     20 C          -5.3389   -1.2413    0.5921 C.3     1  UNL1        0.0606
     21 C          -3.1303    0.2870   -2.0493 C.3     1  UNL1       -0.0590
     22 C           1.0214   -0.1412    1.7943 C.3     1  UNL1       -0.0553
     23 C          -4.7623   -1.9638   -0.6211 C.3     1  UNL1       -0.0258
     24 C           5.5020    1.0576   -0.3587 C.3     1  UNL1       -0.0468
     25 C           5.5052   -1.3387    0.4081 C.3     1  UNL1       -0.0407
     26 C           6.0331    0.0746    0.6706 C.3     1  UNL1       -0.0497
     27 C           3.6448    1.9378   -1.7285 C.3     1  UNL1       -0.0590
     28 C          -5.7117    1.1179   -0.3349 C.3     1  UNL1       -0.0572
     29 C          -5.3599    0.7755    2.0878 C.3     1  UNL1       -0.0572
     30 C           3.4028   -2.7645    0.2214 C.3     1  UNL1       -0.0616
     31 C           6.1442   -2.2971    1.4205 C.3     1  UNL1       -0.0622
     32 H          -1.0407   -1.0145    0.4245 H       1  UNL1        0.0315
     33 H          -2.9922   -0.1887    1.4200 H       1  UNL1        0.0312
     34 H          -0.9102    2.7583    1.0875 H       1  UNL1        0.0271
     35 H          -1.1837    1.2657    1.9487 H       1  UNL1        0.0271
     36 H           3.6576   -0.6907   -1.5623 H       1  UNL1        0.0354
     37 H          -3.2473    2.3027    1.5446 H       1  UNL1        0.0268
     38 H          -2.9986    2.4147   -0.1774 H       1  UNL1        0.0268
     39 H           1.4998    2.4076    1.6648 H       1  UNL1        0.0274
     40 H           1.6448    2.7205   -0.0346 H       1  UNL1        0.0274
     41 H          -0.6120   -0.7643   -2.5694 H       1  UNL1        0.0310
     42 H          -0.6148   -2.1916   -1.5492 H       1  UNL1        0.0310
     43 H          -2.8067   -2.3842    0.1265 H       1  UNL1        0.0271
     44 H          -2.9100   -2.3413   -1.6265 H       1  UNL1        0.0271
     45 H           3.8098    2.8164    0.8934 H       1  UNL1        0.0271
     46 H           3.6400    1.2800    1.7082 H       1  UNL1        0.0271
     47 H          -0.0311    2.9107   -1.0996 H       1  UNL1        0.0235
     48 H           0.2865    1.5168   -2.1315 H       1  UNL1        0.0235
     49 H          -1.3463    2.0625   -1.8174 H       1  UNL1        0.0235
     50 H           1.6920   -1.6356   -2.1540 H       1  UNL1        0.0572
     51 H           3.6713   -1.0600    1.4678 H       1  UNL1        0.0307
     52 H          -4.9902   -1.7560    1.4974 H       1  UNL1        0.0599
     53 H          -3.2887    1.3640   -1.9799 H       1  UNL1        0.0235
     54 H          -2.3942    0.1182   -2.8366 H       1  UNL1        0.0235
     55 H          -4.0584   -0.1240   -2.4529 H       1  UNL1        0.0235
     56 H           2.0120   -0.2443    2.2402 H       1  UNL1        0.0238
     57 H           0.4393    0.3688    2.5639 H       1  UNL1        0.0238
     58 H           0.6229   -1.1542    1.6840 H       1  UNL1        0.0238
     59 H          -5.2525   -1.6202   -1.5383 H       1  UNL1        0.0290
     60 H          -5.0194   -3.0298   -0.5593 H       1  UNL1        0.0290
     61 H           5.9001    2.0564   -0.1376 H       1  UNL1        0.0271
     62 H           5.9189    0.7755   -1.3354 H       1  UNL1        0.0271
     63 H           5.8308   -1.6511   -0.5936 H       1  UNL1        0.0301
     64 H           7.1292    0.0774    0.6219 H       1  UNL1        0.0268
     65 H           5.7680    0.4012    1.6831 H       1  UNL1        0.0268
     66 H           4.0345    2.9582   -1.6370 H       1  UNL1        0.0235
     67 H           4.1079    1.4851   -2.6132 H       1  UNL1        0.0235
     68 H           2.5763    2.0124   -1.9397 H       1  UNL1        0.0235
     69 H          -5.3456    2.1492   -0.3577 H       1  UNL1        0.0236
     70 H          -5.6662    0.7196   -1.3486 H       1  UNL1        0.0236
     71 H          -6.7761    1.1669   -0.0750 H       1  UNL1        0.0236
     72 H          -4.7765    0.2951    2.8810 H       1  UNL1        0.0236
     73 H          -5.2377    1.8588    2.1846 H       1  UNL1        0.0236
     74 H          -6.4168    0.5606    2.2839 H       1  UNL1        0.0236
     75 H           2.3143   -2.7967    0.3207 H       1  UNL1        0.0233
     76 H           3.6710   -3.1347   -0.7736 H       1  UNL1        0.0233
     77 H           3.7855   -3.4719    0.9626 H       1  UNL1        0.0233
     78 H           7.2322   -2.1705    1.4439 H       1  UNL1        0.0233
     79 H           5.7623   -2.1196    2.4315 H       1  UNL1        0.0233
     80 H           5.9556   -3.3421    1.1581 H       1  UNL1        0.0233
     81 H          -6.9443   -2.3597    0.5595 H       1  UNL1        0.2098
@<TRIPOS>BOND
     1     1    20    1
     2     1    81    1
     3     2     3    1
     4     2     5    1
     5     2     7    1
     6     2    17    1
     7     3     4    1
     8     3    14    1
     9     3    32    1
    10     4     6    1
    11     4    15    1
    12     4    21    1
    13     5     8    1
    14     5    13    1
    15     5    22    1
    16     6    10    1
    17     6    12    1
    18     6    33    1
    19     7    10    1
    20     7    34    1
    21     7    35    1
    22     8     9    1
    23     8    18    2
    24     9    11    1
    25     9    19    1
    26     9    36    1
    27    10    37    1
    28    10    38    1
    29    11    16    1
    30    11    24    1
    31    11    27    1
    32    12    20    1
    33    12    28    1
    34    12    29    1
    35    13    16    1
    36    13    39    1
    37    13    40    1
    38    14    18    1
    39    14    41    1
    40    14    42    1
    41    15    23    1
    42    15    43    1
    43    15    44    1
    44    16    45    1
    45    16    46    1
    46    17    47    1
    47    17    48    1
    48    17    49    1
    49    18    50    1
    50    19    25    1
    51    19    30    1
    52    19    51    1
    53    20    23    1
    54    20    52    1
    55    21    53    1
    56    21    54    1
    57    21    55    1
    58    22    56    1
    59    22    57    1
    60    22    58    1
    61    23    59    1
    62    23    60    1
    63    24    26    1
    64    24    61    1
    65    24    62    1
    66    25    26    1
    67    25    31    1
    68    25    63    1
    69    26    64    1
    70    26    65    1
    71    27    66    1
    72    27    67    1
    73    27    68    1
    74    28    69    1
    75    28    70    1
    76    28    71    1
    77    29    72    1
    78    29    73    1
    79    29    74    1
    80    30    75    1
    81    30    76    1
    82    30    77    1
    83    31    78    1
    84    31    79    1
    85    31    80    1
