@<TRIPOS>MOLECULE
5281520
 39 39 0 0 0
SMALL
GASTEIGER

@<TRIPOS>ATOM
      1 C          -2.3871   -0.0220   -0.0683 C.3     1  UNL1       -0.0135
      2 C          -1.8204    1.4281   -0.2663 C.3     1  UNL1       -0.0259
      3 C          -1.2759   -1.0206   -0.3777 C.2     1  UNL1       -0.0817
      4 C          -3.6562   -0.2094   -0.9266 C.3     1  UNL1       -0.0561
      5 C          -2.7943   -0.1968    1.4076 C.3     1  UNL1       -0.0561
      6 C          -0.5174    1.6753    0.4637 C.2     1  UNL1       -0.0842
      7 C           0.6990    1.9169   -0.0701 C.2     1  UNL1       -0.0762
      8 C           1.9341    1.9072    0.8219 C.3     1  UNL1       -0.0286
      9 C          -0.6878   -1.8772    0.4767 C.2     1  UNL1       -0.0834
     10 C           2.8149    0.6501    0.6366 C.3     1  UNL1       -0.0308
     11 C           0.6217   -2.5682    0.1733 C.3     1  UNL1       -0.0138
     12 C           1.7336   -1.5619   -0.0972 C.2     1  UNL1       -0.0728
     13 C           2.0070   -0.6075    0.8175 C.2     1  UNL1       -0.0844
     14 C           0.9706    2.1443   -1.5313 C.3     1  UNL1       -0.0438
     15 C           2.3581   -1.6584   -1.4598 C.3     1  UNL1       -0.0435
     16 H          -2.5536    2.1618    0.0932 H       1  UNL1        0.0316
     17 H          -1.7139    1.6151   -1.3395 H       1  UNL1        0.0316
     18 H          -0.8526   -0.9279   -1.3778 H       1  UNL1        0.0575
     19 H          -4.4249    0.5267   -0.6667 H       1  UNL1        0.0238
     20 H          -3.4265   -0.0934   -1.9917 H       1  UNL1        0.0238
     21 H          -4.0822   -1.2096   -0.7883 H       1  UNL1        0.0238
     22 H          -3.5526    0.5474    1.6831 H       1  UNL1        0.0238
     23 H          -3.2476   -1.1799    1.5875 H       1  UNL1        0.0238
     24 H          -1.9696   -0.0711    2.1168 H       1  UNL1        0.0238
     25 H          -0.5745    1.5657    1.5451 H       1  UNL1        0.0572
     26 H           2.5338    2.8038    0.6216 H       1  UNL1        0.0313
     27 H           1.6411    1.9783    1.8781 H       1  UNL1        0.0313
     28 H          -1.0477   -2.0126    1.4909 H       1  UNL1        0.0572
     29 H           3.6174    0.6633    1.3834 H       1  UNL1        0.0310
     30 H           3.3011    0.6951   -0.3416 H       1  UNL1        0.0310
     31 H           0.9095   -3.2018    1.0212 H       1  UNL1        0.0352
     32 H           0.4813   -3.2438   -0.6792 H       1  UNL1        0.0352
     33 H           1.4989   -0.6666    1.7804 H       1  UNL1        0.0572
     34 H           0.0689    2.3465   -2.1129 H       1  UNL1        0.0274
     35 H           1.4681    1.2754   -1.9714 H       1  UNL1        0.0274
     36 H           1.6230    3.0148   -1.6599 H       1  UNL1        0.0274
     37 H           1.6175   -1.4362   -2.2346 H       1  UNL1        0.0274
     38 H           2.7351   -2.6737   -1.6247 H       1  UNL1        0.0274
     39 H           3.2051   -0.9832   -1.5980 H       1  UNL1        0.0274
@<TRIPOS>BOND
     1     1     2    1
     2     1     3    1
     3     1     4    1
     4     1     5    1
     5     2     6    1
     6     2    16    1
     7     2    17    1
     8     3     9    2
     9     3    18    1
    10     4    19    1
    11     4    20    1
    12     4    21    1
    13     5    22    1
    14     5    23    1
    15     5    24    1
    16     6     7    2
    17     6    25    1
    18     7     8    1
    19     7    14    1
    20     8    10    1
    21     8    26    1
    22     8    27    1
    23     9    11    1
    24     9    28    1
    25    10    13    1
    26    10    29    1
    27    10    30    1
    28    11    12    1
    29    11    31    1
    30    11    32    1
    31    12    13    2
    32    12    15    1
    33    13    33    1
    34    14    34    1
    35    14    35    1
    36    14    36    1
    37    15    37    1
    38    15    38    1
    39    15    39    1
