@<TRIPOS>MOLECULE
5281643
 53 56 0 0 0
SMALL
GASTEIGER

@<TRIPOS>ATOM
      1 O          -1.0680    2.4696    0.1414 O.3     1  UNL1       -0.3313
      2 O          -0.6231    0.4701    1.2607 O.3     1  UNL1       -0.4532
      3 O          -5.1135    1.6028    0.0437 O.3     1  UNL1       -0.3864
      4 O          -3.5357    3.7970    0.6957 O.3     1  UNL1       -0.3865
      5 O          -3.1807   -0.5008    0.4959 O.3     1  UNL1       -0.3829
      6 O           0.1035    4.5391   -1.2315 O.3     1  UNL1       -0.3924
      7 O           1.9467   -1.7534   -0.1673 O.2     1  UNL1       -0.4507
      8 O           1.6635    2.0531    1.2589 O.2     1  UNL1       -0.2830
      9 O           4.2043    2.4313    0.7704 O.3     1  UNL1       -0.5058
     10 O           6.5725   -1.2353   -1.0982 O.3     1  UNL1       -0.5065
     11 O          -2.9810   -3.2482   -2.1117 O.3     1  UNL1       -0.5033
     12 O          -3.4688   -4.9605    0.0219 O.3     1  UNL1       -0.5033
     13 C          -3.7627    1.6571   -0.4065 C.3     1  UNL1        0.1152
     14 C          -3.3094    3.1115   -0.5376 C.3     1  UNL1        0.1120
     15 C          -2.8749    0.8914    0.5739 C.3     1  UNL1        0.1454
     16 C          -1.8137    3.1605   -0.8687 C.3     1  UNL1        0.1140
     17 C          -1.3962    1.0837    0.2298 C.3     1  UNL1        0.2311
     18 C          -1.2802    4.5867   -0.9329 C.3     1  UNL1        0.0731
     19 C           0.5808    0.0022    0.7807 C.ar    1  UNL1        0.2138
     20 C           0.7439   -1.2410    0.2923 C.ar    1  UNL1        0.1810
     21 C           1.7508    0.9120    0.8256 C.ar    1  UNL1        0.2382
     22 C           3.0213    0.3671    0.3232 C.ar    1  UNL1        0.1092
     23 C           3.0526   -0.9432   -0.1486 C.ar    1  UNL1        0.1465
     24 C          -0.3608   -2.2137    0.2186 C.ar    1  UNL1        0.0247
     25 C           4.1810    1.1463    0.3194 C.ar    1  UNL1        0.1348
     26 C           4.2461   -1.4840   -0.6280 C.ar    1  UNL1        0.0231
     27 C          -1.1606   -2.2763   -0.9228 C.ar    1  UNL1       -0.0057
     28 C          -0.6070   -3.0726    1.2900 C.ar    1  UNL1       -0.0473
     29 C           5.3734    0.6033   -0.1608 C.ar    1  UNL1        0.0223
     30 C           5.4062   -0.7092   -0.6337 C.ar    1  UNL1        0.1239
     31 C          -2.2060   -3.1973   -0.9927 C.ar    1  UNL1        0.1589
     32 C          -1.6524   -3.9935    1.2201 C.ar    1  UNL1       -0.0159
     33 C          -2.4519   -4.0559    0.0787 C.ar    1  UNL1        0.1583
     34 H          -3.7345    1.1725   -1.3906 H       1  UNL1        0.0648
     35 H          -3.8975    3.6273   -1.3049 H       1  UNL1        0.0647
     36 H          -3.0856    1.2101    1.6023 H       1  UNL1        0.0683
     37 H          -1.6154    2.6673   -1.8295 H       1  UNL1        0.0647
     38 H          -1.1889    0.6134   -0.7414 H       1  UNL1        0.1084
     39 H          -1.3894    5.1089    0.0230 H       1  UNL1        0.0584
     40 H          -1.7864    5.1655   -1.7111 H       1  UNL1        0.0584
     41 H          -5.3538    0.6646    0.1319 H       1  UNL1        0.2100
     42 H          -4.4821    3.7143    0.9035 H       1  UNL1        0.2100
     43 H          -2.7070   -0.9378    1.2239 H       1  UNL1        0.2102
     44 H           0.5365    4.0127   -0.5377 H       1  UNL1        0.2095
     45 H           4.2670   -2.5074   -0.9946 H       1  UNL1        0.0691
     46 H          -0.9733   -1.6158   -1.7665 H       1  UNL1        0.0662
     47 H           0.0077   -3.0358    2.1860 H       1  UNL1        0.0626
     48 H           6.2806    1.2028   -0.1666 H       1  UNL1        0.0691
     49 H          -1.8329   -4.6564    2.0620 H       1  UNL1        0.0655
     50 H           3.3231    2.7035    1.0688 H       1  UNL1        0.2922
     51 H           6.4136   -2.1514   -1.3840 H       1  UNL1        0.2921
     52 H          -3.6538   -3.9398   -1.9866 H       1  UNL1        0.2923
     53 H          -3.4882   -5.4677    0.8516 H       1  UNL1        0.2923
@<TRIPOS>BOND
     1     1    16    1
     2     1    17    1
     3     2    17    1
     4     2    19    1
     5     3    13    1
     6     3    41    1
     7     4    14    1
     8     4    42    1
     9     5    15    1
    10     5    43    1
    11     6    18    1
    12     6    44    1
    13     7    20   ar
    14     7    23   ar
    15     8    21    2
    16     9    25    1
    17     9    50    1
    18    10    30    1
    19    10    51    1
    20    11    31    1
    21    11    52    1
    22    12    33    1
    23    12    53    1
    24    13    14    1
    25    13    15    1
    26    13    34    1
    27    14    16    1
    28    14    35    1
    29    15    17    1
    30    15    36    1
    31    16    18    1
    32    16    37    1
    33    17    38    1
    34    18    39    1
    35    18    40    1
    36    19    20   ar
    37    19    21   ar
    38    20    24    1
    39    21    22   ar
    40    22    23   ar
    41    22    25   ar
    42    23    26   ar
    43    24    27   ar
    44    24    28   ar
    45    25    29   ar
    46    26    30   ar
    47    26    45    1
    48    27    31   ar
    49    27    46    1
    50    28    32   ar
    51    28    47    1
    52    29    30   ar
    53    29    48    1
    54    31    33   ar
    55    32    33   ar
    56    32    49    1
