@<TRIPOS>MOLECULE
370
 18 18 0 0 0
SMALL
GASTEIGER

@<TRIPOS>ATOM
      1 O           3.1158   -0.0411   -0.0006 O.3     1  UNL1       -0.5009
      2 O           1.7728    2.3803   -0.0004 O.3     1  UNL1       -0.5032
      3 O           1.6770   -2.4076   -0.0008 O.3     1  UNL1       -0.5032
      4 O          -3.0362   -1.1764   -0.0008 O.3     1  UNL1       -0.4771
      5 O          -3.1863    1.0917   -0.0004 O.2     1  UNL1       -0.2451
      6 C          -1.0366    0.0417    0.0005 C.ar    1  UNL1        0.0660
      7 C           1.7526   -0.0142    0.0004 C.ar    1  UNL1        0.2006
      8 C           1.0793    1.2075    0.0001 C.ar    1  UNL1        0.1628
      9 C           1.0312   -1.2081    0.0008 C.ar    1  UNL1        0.1628
     10 C          -0.3153    1.2354    0.0002 C.ar    1  UNL1       -0.0023
     11 C          -0.3635   -1.1801    0.0008 C.ar    1  UNL1       -0.0023
     12 C          -2.4908    0.0708    0.0002 C.2     1  UNL1        0.3370
     13 H          -0.8342    2.1912   -0.0001 H       1  UNL1        0.0663
     14 H          -0.8919   -2.1299    0.0007 H       1  UNL1        0.0663
     15 H           3.4410    0.8760   -0.0010 H       1  UNL1        0.2924
     16 H           1.1431    3.1216   -0.0006 H       1  UNL1        0.2923
     17 H           2.6353   -2.2390   -0.0011 H       1  UNL1        0.2923
     18 H          -4.0167   -1.1460   -0.0016 H       1  UNL1        0.2954
@<TRIPOS>BOND
     1     1     7    1
     2     1    15    1
     3     2     8    1
     4     2    16    1
     5     3     9    1
     6     3    17    1
     7     4    12    1
     8     4    18    1
     9     5    12    2
    10     6    10   ar
    11     6    11   ar
    12     6    12    1
    13     7     8   ar
    14     7     9   ar
    15     8    10   ar
    16     9    11   ar
    17    10    13    1
    18    11    14    1
