@<TRIPOS>MOLECULE
26049
 26 27 0 0 0
SMALL
GASTEIGER

@<TRIPOS>ATOM
      1 C          -1.5288   -0.2173    0.1866 C.3     1  UNL1       -0.0281
      2 C          -0.6223   -0.5219   -0.9784 C.3     1  UNL1       -0.0283
      3 C          -0.9265    0.9068   -0.6166 C.3     1  UNL1       -0.0286
      4 C           0.7492   -1.0815   -0.7366 C.3     1  UNL1       -0.0284
      5 C           0.1450    1.7666   -0.0185 C.3     1  UNL1       -0.0309
      6 C          -1.0705   -0.4739    1.5831 C.3     1  UNL1       -0.0593
      7 C          -2.9858   -0.4794   -0.0039 C.3     1  UNL1       -0.0593
      8 C           1.7324   -0.1858   -0.0214 C.2     1  UNL1       -0.0762
      9 C           1.4482    1.0899    0.2938 C.2     1  UNL1       -0.0847
     10 C           3.0592   -0.8035    0.3120 C.3     1  UNL1       -0.0438
     11 H          -1.0722   -0.9307   -1.8759 H       1  UNL1        0.0312
     12 H          -1.5833    1.4728   -1.2670 H       1  UNL1        0.0312
     13 H           1.1828   -1.3398   -1.7113 H       1  UNL1        0.0313
     14 H           0.6467   -2.0239   -0.1843 H       1  UNL1        0.0313
     15 H          -0.2414    2.2345    0.8949 H       1  UNL1        0.0310
     16 H           0.3588    2.5857   -0.7163 H       1  UNL1        0.0310
     17 H          -1.2773   -1.5168    1.8519 H       1  UNL1        0.0235
     18 H          -1.6389    0.1559    2.2780 H       1  UNL1        0.0235
     19 H          -0.0211   -0.3046    1.8099 H       1  UNL1        0.0235
     20 H          -3.5824    0.1608    0.6549 H       1  UNL1        0.0235
     21 H          -3.2236   -1.5232    0.2283 H       1  UNL1        0.0235
     22 H          -3.3138   -0.2888   -1.0321 H       1  UNL1        0.0235
     23 H           2.1928    1.6967    0.8029 H       1  UNL1        0.0572
     24 H           3.5607   -1.1409   -0.6008 H       1  UNL1        0.0274
     25 H           2.9205   -1.6658    0.9721 H       1  UNL1        0.0274
     26 H           3.7276   -0.0998    0.8190 H       1  UNL1        0.0274
@<TRIPOS>BOND
     1     1     2    1
     2     1     3    1
     3     1     6    1
     4     1     7    1
     5     2     3    1
     6     2     4    1
     7     2    11    1
     8     3     5    1
     9     3    12    1
    10     4     8    1
    11     4    13    1
    12     4    14    1
    13     5     9    1
    14     5    15    1
    15     5    16    1
    16     6    17    1
    17     6    18    1
    18     6    19    1
    19     7    20    1
    20     7    21    1
    21     7    22    1
    22     8     9    2
    23     8    10    1
    24     9    23    1
    25    10    24    1
    26    10    25    1
    27    10    26    1
