@<TRIPOS>MOLECULE
10364
 25 25 0 0 0
SMALL
GASTEIGER

@<TRIPOS>ATOM
      1 O          -1.9010    2.0331    0.0000 O.3     1  UNL1       -0.5065
      2 C           2.3830   -0.3022    0.0001 C.3     1  UNL1       -0.0214
      3 C           0.8919   -0.3232    0.0001 C.ar    1  UNL1       -0.0413
      4 C           2.9626    0.3674    1.2605 C.3     1  UNL1       -0.0586
      5 C           2.9626    0.3674   -1.2604 C.3     1  UNL1       -0.0586
      6 C           0.1770    0.8746    0.0000 C.ar    1  UNL1       -0.0165
      7 C           0.2120   -1.5413    0.0000 C.ar    1  UNL1       -0.0579
      8 C          -1.8975   -0.3639   -0.0004 C.ar    1  UNL1       -0.0090
      9 C          -1.2178    0.8543   -0.0002 C.ar    1  UNL1        0.1200
     10 C          -1.1827   -1.5616   -0.0002 C.ar    1  UNL1       -0.0551
     11 C          -3.3900   -0.4045    0.0005 C.3     1  UNL1       -0.0363
     12 H           2.7523   -1.3369    0.0001 H       1  UNL1        0.0343
     13 H           2.7122    1.4325    1.3106 H       1  UNL1        0.0235
     14 H           4.0545    0.2809    1.2732 H       1  UNL1        0.0235
     15 H           2.5767   -0.1111    2.1675 H       1  UNL1        0.0235
     16 H           2.5767   -0.1111   -2.1675 H       1  UNL1        0.0235
     17 H           4.0545    0.2808   -1.2732 H       1  UNL1        0.0235
     18 H           2.7121    1.4326   -1.3106 H       1  UNL1        0.0235
     19 H           0.6923    1.8317    0.0002 H       1  UNL1        0.0657
     20 H           0.7534   -2.4836    0.0000 H       1  UNL1        0.0620
     21 H          -1.6969   -2.5190   -0.0001 H       1  UNL1        0.0621
     22 H          -3.7889    0.0833    0.8961 H       1  UNL1        0.0279
     23 H          -3.7900    0.0842   -0.8941 H       1  UNL1        0.0279
     24 H          -3.7662   -1.4336    0.0002 H       1  UNL1        0.0279
     25 H          -2.8588    1.8813   -0.0003 H       1  UNL1        0.2921
@<TRIPOS>BOND
     1     1     9    1
     2     1    25    1
     3     2     3    1
     4     2     4    1
     5     2     5    1
     6     2    12    1
     7     3     6   ar
     8     3     7   ar
     9     4    13    1
    10     4    14    1
    11     4    15    1
    12     5    16    1
    13     5    17    1
    14     5    18    1
    15     6     9   ar
    16     6    19    1
    17     7    10   ar
    18     7    20    1
    19     8     9   ar
    20     8    10   ar
    21     8    11    1
    22    10    21    1
    23    11    22    1
    24    11    23    1
    25    11    24    1
