@<TRIPOS>MOLECULE
7519
 16 16 0 0 0
SMALL
GASTEIGER

@<TRIPOS>ATOM
      1 O           1.8925   -0.6211    0.0000 O.3     1  UNL1       -0.4951
      2 C           0.5699   -0.3011   -0.0003 C.ar    1  UNL1        0.1201
      3 C           0.1759    1.0370   -0.0002 C.ar    1  UNL1       -0.0200
      4 C          -0.3918   -1.3114   -0.0001 C.ar    1  UNL1       -0.0200
      5 C          -1.1799    1.3647    0.0000 C.ar    1  UNL1       -0.0583
      6 C          -1.7476   -0.9836    0.0001 C.ar    1  UNL1       -0.0583
      7 C          -2.1417    0.3545    0.0002 C.ar    1  UNL1       -0.0615
      8 C           2.8227    0.4610    0.0003 C.3     1  UNL1        0.0788
      9 H           0.8695    1.8709   -0.0003 H       1  UNL1        0.0654
     10 H          -0.0910   -2.3555    0.0000 H       1  UNL1        0.0654
     11 H          -1.4879    2.4064    0.0001 H       1  UNL1        0.0619
     12 H          -2.4966   -1.7702    0.0003 H       1  UNL1        0.0619
     13 H          -3.1974    0.6096    0.0003 H       1  UNL1        0.0618
     14 H           2.7368    1.0652    0.9098 H       1  UNL1        0.0660
     15 H           2.7373    1.0653   -0.9092 H       1  UNL1        0.0660
     16 H           3.8267    0.0241    0.0005 H       1  UNL1        0.0660
@<TRIPOS>BOND
     1     1     2    1
     2     1     8    1
     3     2     3   ar
     4     2     4   ar
     5     3     5   ar
     6     3     9    1
     7     4     6   ar
     8     4    10    1
     9     5     7   ar
    10     5    11    1
    11     6     7   ar
    12     6    12    1
    13     7    13    1
    14     8    14    1
    15     8    15    1
    16     8    16    1
