@<TRIPOS>MOLECULE
159969
 82 83 0 0 0
SMALL
GASTEIGER

@<TRIPOS>ATOM
      1 O          -0.5848    1.6321    1.7843 O.3     1  UNL1       -0.5060
      2 O           1.9743   -0.1028    2.5430 O.3     1  UNL1       -0.5060
      3 O          -2.3292   -2.2977   -0.2988 O.3     1  UNL1       -0.5055
      4 O          -0.1750   -2.4542   -1.0174 O.3     1  UNL1       -0.5055
      5 O          -4.1896    1.9862   -1.3309 O.3     1  UNL1       -0.4939
      6 O           4.5071   -1.5056   -1.2572 O.3     1  UNL1       -0.5055
      7 O          -5.0300   -1.6472   -1.3463 O.2     1  UNL1       -0.2921
      8 O           2.6014   -2.0378   -3.4716 O.2     1  UNL1       -0.2921
      9 C          -0.4385   -1.1952    1.5138 C.3     1  UNL1        0.0234
     10 C          -1.0089   -2.5772    1.9332 C.3     1  UNL1       -0.0394
     11 C          -2.3855   -2.5369    2.6361 C.3     1  UNL1       -0.0459
     12 C          -1.4479   -0.3411    0.7491 C.ar    1  UNL1        0.0442
     13 C           0.8874   -1.2784    0.7691 C.ar    1  UNL1        0.0442
     14 C          -1.4668    1.0423    0.9268 C.ar    1  UNL1        0.1310
     15 C           2.0376   -0.7223    1.3291 C.ar    1  UNL1        0.1310
     16 C          -2.3504   -0.9441   -0.1272 C.ar    1  UNL1        0.1381
     17 C           0.9520   -1.9111   -0.4723 C.ar    1  UNL1        0.1381
     18 C          -2.2826   -1.7026    3.9168 C.3     1  UNL1       -0.0626
     19 C          -2.9164   -3.9306    2.9751 C.3     1  UNL1       -0.0626
     20 C          -2.3881    1.8227    0.2282 C.ar    1  UNL1        0.0405
     21 C           3.2522   -0.7987    0.6477 C.ar    1  UNL1        0.0403
     22 C          -3.2715   -0.1638   -0.8257 C.ar    1  UNL1        0.1008
     23 C           2.1668   -1.9875   -1.1539 C.ar    1  UNL1        0.1005
     24 C          -3.2905    1.2196   -0.6480 C.ar    1  UNL1        0.1410
     25 C           3.3168   -1.4313   -0.5938 C.ar    1  UNL1        0.1378
     26 C          -2.4083    3.3056    0.4195 C.3     1  UNL1       -0.0023
     27 C           4.4849   -0.2018    1.2483 C.3     1  UNL1       -0.0023
     28 C          -4.2147   -0.7943   -1.7431 C.2     1  UNL1        0.1672
     29 C           2.2345   -2.6503   -2.4519 C.2     1  UNL1        0.1671
     30 C          -1.5052    4.0319   -0.5449 C.2     1  UNL1       -0.0807
     31 C           4.6888    1.2389    0.8533 C.2     1  UNL1       -0.0807
     32 C          -4.2160   -0.4150   -3.2175 C.3     1  UNL1       -0.0012
     33 C           1.8526   -4.1184   -2.5810 C.3     1  UNL1       -0.0012
     34 C          -0.4388    4.8042   -0.2620 C.2     1  UNL1       -0.0793
     35 C           5.7181    1.7744    0.1696 C.2     1  UNL1       -0.0793
     36 C          -5.4493    2.2155   -0.7052 C.3     1  UNL1        0.0788
     37 C           0.4212    5.5016   -1.2776 C.3     1  UNL1       -0.0440
     38 C          -0.0252    5.0381    1.1667 C.3     1  UNL1       -0.0440
     39 C           5.8584    3.2260   -0.1915 C.3     1  UNL1       -0.0440
     40 C           6.8592    0.9071   -0.2919 C.3     1  UNL1       -0.0440
     41 H          -0.2898   -0.6961    2.4736 H       1  UNL1        0.0402
     42 H          -0.2865   -3.0097    2.6439 H       1  UNL1        0.0277
     43 H          -1.0112   -3.3216    1.1315 H       1  UNL1        0.0277
     44 H          -3.1530   -2.0716    2.0139 H       1  UNL1        0.0296
     45 H          -2.1113   -0.6437    3.7036 H       1  UNL1        0.0232
     46 H          -3.2161   -1.7583    4.4883 H       1  UNL1        0.0232
     47 H          -1.4760   -2.0608    4.5656 H       1  UNL1        0.0232
     48 H          -3.0288   -4.5304    2.0660 H       1  UNL1        0.0232
     49 H          -3.8961   -3.8714    3.4608 H       1  UNL1        0.0232
     50 H          -2.2344   -4.4605    3.6487 H       1  UNL1        0.0232
     51 H          -2.1896    3.5288    1.4671 H       1  UNL1        0.0358
     52 H          -3.4184    3.7086    0.2873 H       1  UNL1        0.0358
     53 H           4.4291   -0.2425    2.3441 H       1  UNL1        0.0358
     54 H           5.3400   -0.8421    1.0172 H       1  UNL1        0.0358
     55 H           0.2355    1.1198    1.8367 H       1  UNL1        0.2922
     56 H           1.5157   -0.6939    3.1638 H       1  UNL1        0.2922
     57 H          -3.0019   -2.5763   -0.9400 H       1  UNL1        0.2922
     58 H          -0.0780   -2.5334   -1.9798 H       1  UNL1        0.2922
     59 H          -1.7675    3.9117   -1.5958 H       1  UNL1        0.0575
     60 H           3.8991    1.9175    1.1754 H       1  UNL1        0.0575
     61 H           4.4053   -1.9765   -2.0996 H       1  UNL1        0.2922
     62 H          -5.1293    0.1387   -3.4482 H       1  UNL1        0.0309
     63 H          -3.3469    0.2024   -3.4609 H       1  UNL1        0.0309
     64 H          -4.1644   -1.3265   -3.8193 H       1  UNL1        0.0309
     65 H           2.6848   -4.6612   -3.0376 H       1  UNL1        0.0309
     66 H           1.6562   -4.5599   -1.6002 H       1  UNL1        0.0309
     67 H           0.9589   -4.2096   -3.2032 H       1  UNL1        0.0309
     68 H          -6.1153    1.3687   -0.8960 H       1  UNL1        0.0660
     69 H          -5.3512    2.3665    0.3750 H       1  UNL1        0.0660
     70 H          -5.8926    3.1127   -1.1457 H       1  UNL1        0.0660
     71 H           0.3763    6.5864   -1.1388 H       1  UNL1        0.0274
     72 H           1.4624    5.1773   -1.1816 H       1  UNL1        0.0274
     73 H           0.0956    5.2814   -2.2996 H       1  UNL1        0.0274
     74 H          -0.8416    4.9687    1.8877 H       1  UNL1        0.0274
     75 H           0.3776    6.0514    1.2800 H       1  UNL1        0.0274
     76 H           0.7627    4.3329    1.4505 H       1  UNL1        0.0274
     77 H           4.9940    3.8089    0.1434 H       1  UNL1        0.0274
     78 H           5.9393    3.3423   -1.2771 H       1  UNL1        0.0274
     79 H           6.7513    3.6533    0.2757 H       1  UNL1        0.0274
     80 H           7.0176    0.0109    0.3102 H       1  UNL1        0.0274
     81 H           7.8009    1.4658   -0.2354 H       1  UNL1        0.0274
     82 H           6.7090    0.6123   -1.3354 H       1  UNL1        0.0274
@<TRIPOS>BOND
     1     1    14    1
     2     1    55    1
     3     2    15    1
     4     2    56    1
     5     3    16    1
     6     3    57    1
     7     4    17    1
     8     4    58    1
     9     5    24    1
    10     5    36    1
    11     6    25    1
    12     6    61    1
    13     7    28    2
    14     8    29    2
    15     9    10    1
    16     9    12    1
    17     9    13    1
    18     9    41    1
    19    10    11    1
    20    10    42    1
    21    10    43    1
    22    11    18    1
    23    11    19    1
    24    11    44    1
    25    12    14   ar
    26    12    16   ar
    27    13    15   ar
    28    13    17   ar
    29    14    20   ar
    30    15    21   ar
    31    16    22   ar
    32    17    23   ar
    33    18    45    1
    34    18    46    1
    35    18    47    1
    36    19    48    1
    37    19    49    1
    38    19    50    1
    39    20    24   ar
    40    20    26    1
    41    21    25   ar
    42    21    27    1
    43    22    24   ar
    44    22    28    1
    45    23    25   ar
    46    23    29    1
    47    26    30    1
    48    26    51    1
    49    26    52    1
    50    27    31    1
    51    27    53    1
    52    27    54    1
    53    28    32    1
    54    29    33    1
    55    30    34    2
    56    30    59    1
    57    31    35    2
    58    31    60    1
    59    32    62    1
    60    32    63    1
    61    32    64    1
    62    33    65    1
    63    33    66    1
    64    33    67    1
    65    34    37    1
    66    34    38    1
    67    35    39    1
    68    35    40    1
    69    36    68    1
    70    36    69    1
    71    36    70    1
    72    37    71    1
    73    37    72    1
    74    37    73    1
    75    38    74    1
    76    38    75    1
    77    38    76    1
    78    39    77    1
    79    39    78    1
    80    39    79    1
    81    40    80    1
    82    40    81    1
    83    40    82    1
