@<TRIPOS>MOLECULE
7463
 24 24 0 0 0
SMALL
GASTEIGER

@<TRIPOS>ATOM
      1 C           2.1661   -0.3563    0.0001 C.3     1  UNL1       -0.0215
      2 C           0.6826   -0.2034    0.0001 C.ar    1  UNL1       -0.0448
      3 C           2.8197    0.2415    1.2604 C.3     1  UNL1       -0.0587
      4 C           2.8198    0.2407   -1.2605 C.3     1  UNL1       -0.0587
      5 C           0.1127    1.0698   -0.0001 C.ar    1  UNL1       -0.0581
      6 C          -0.1350   -1.3334    0.0003 C.ar    1  UNL1       -0.0581
      7 C          -2.0925    0.0827   -0.0001 C.ar    1  UNL1       -0.0504
      8 C          -1.2748    1.2129   -0.0002 C.ar    1  UNL1       -0.0586
      9 C          -1.5226   -1.1904    0.0001 C.ar    1  UNL1       -0.0586
     10 C          -3.5759    0.2357    0.0000 C.3     1  UNL1       -0.0397
     11 H           2.4122   -1.4270    0.0004 H       1  UNL1        0.0343
     12 H           2.6950    1.3286    1.3103 H       1  UNL1        0.0235
     13 H           3.8941    0.0285    1.2732 H       1  UNL1        0.0235
     14 H           2.3808   -0.1886    2.1675 H       1  UNL1        0.0235
     15 H           2.3808   -0.1898   -2.1674 H       1  UNL1        0.0235
     16 H           3.8942    0.0277   -1.2732 H       1  UNL1        0.0235
     17 H           2.6950    1.3278   -1.3110 H       1  UNL1        0.0235
     18 H           0.7304    1.9637   -0.0007 H       1  UNL1        0.0620
     19 H           0.2924   -2.3326    0.0000 H       1  UNL1        0.0620
     20 H          -1.7070    2.2100   -0.0022 H       1  UNL1        0.0620
     21 H          -2.1491   -2.0785   -0.0016 H       1  UNL1        0.0620
     22 H          -4.0595   -0.6000    0.5172 H       1  UNL1        0.0278
     23 H          -3.8787    1.1515    0.5193 H       1  UNL1        0.0278
     24 H          -3.9495    0.2754   -1.0280 H       1  UNL1        0.0278
@<TRIPOS>BOND
     1     1     2    1
     2     1     3    1
     3     1     4    1
     4     1    11    1
     5     2     5   ar
     6     2     6   ar
     7     3    12    1
     8     3    13    1
     9     3    14    1
    10     4    15    1
    11     4    16    1
    12     4    17    1
    13     5     8   ar
    14     5    18    1
    15     6     9   ar
    16     6    19    1
    17     7     8   ar
    18     7     9   ar
    19     7    10    1
    20     8    20    1
    21     9    21    1
    22    10    22    1
    23    10    23    1
    24    10    24    1
