@<TRIPOS>MOLECULE
72326
 82 86 0 0 0
SMALL
GASTEIGER

@<TRIPOS>ATOM
      1 O          -6.0058    1.3789    1.0864 O.3     1  UNL1       -0.3912
      2 O           4.7890   -2.8314    1.3809 O.3     1  UNL1       -0.3945
      3 C          -0.5843   -0.9762    0.1177 C.3     1  UNL1       -0.0231
      4 C           0.8981   -0.8888   -0.5554 C.3     1  UNL1       -0.0233
      5 C          -1.2427    0.4621    0.0741 C.3     1  UNL1       -0.0294
      6 C           1.7525    0.1825    0.2436 C.3     1  UNL1       -0.0312
      7 C          -2.7961    0.5700    0.4160 C.3     1  UNL1       -0.0252
      8 C           3.2123    0.2106   -0.2568 C.3     1  UNL1       -0.0235
      9 C           3.8884   -1.1708   -0.0813 C.3     1  UNL1       -0.0024
     10 C          -3.5616   -0.5067   -0.4299 C.3     1  UNL1       -0.0278
     11 C           1.6430   -2.2725   -0.5507 C.3     1  UNL1       -0.0463
     12 C          -1.4993   -1.9706   -0.6482 C.3     1  UNL1       -0.0466
     13 C          -0.3575    1.5008    0.8006 C.3     1  UNL1       -0.0489
     14 C           1.0717    1.5576    0.2528 C.3     1  UNL1       -0.0491
     15 C           3.1380   -2.2062   -0.9287 C.3     1  UNL1       -0.0445
     16 C          -2.9736   -1.9184   -0.2367 C.3     1  UNL1       -0.0486
     17 C           4.2334    1.1792    0.3689 C.3     1  UNL1       -0.0167
     18 C          -5.1401   -0.4497   -0.3470 C.3     1  UNL1       -0.0056
     19 C          -3.2983    1.9937   -0.0220 C.3     1  UNL1       -0.0447
     20 C           5.3038   -0.8445   -0.5761 C.3     1  UNL1       -0.0445
     21 C          -0.4682   -1.5094    1.5775 C.3     1  UNL1       -0.0588
     22 C           0.8029   -0.4828   -2.0672 C.3     1  UNL1       -0.0588
     23 C           5.6011    0.5487    0.0080 C.3     1  UNL1       -0.0457
     24 C          -3.0627    0.4355    1.9332 C.3     1  UNL1       -0.0590
     25 C          -5.6528    1.0231   -0.2480 C.3     1  UNL1        0.0606
     26 C          -4.6317    2.0233   -0.7775 C.3     1  UNL1       -0.0258
     27 C           3.9870   -1.6739    1.3817 C.3     1  UNL1        0.0501
     28 C           4.1454    2.5873   -0.1250 C.2     1  UNL1       -0.0763
     29 C          -5.7009   -1.0311   -1.6778 C.3     1  UNL1       -0.0572
     30 C          -5.7276   -1.3192    0.7846 C.3     1  UNL1       -0.0572
     31 C           4.2828    2.7785   -1.6064 C.3     1  UNL1       -0.0438
     32 C           3.9540    3.6205    0.7087 C.2     1  UNL1       -0.0994
     33 H          -1.2193    0.7580   -0.9819 H       1  UNL1        0.0312
     34 H           1.8022   -0.1269    1.2924 H       1  UNL1        0.0309
     35 H           3.1840    0.4267   -1.3299 H       1  UNL1        0.0315
     36 H          -3.3235   -0.2535   -1.4766 H       1  UNL1        0.0312
     37 H           1.1464   -2.9642   -1.2428 H       1  UNL1        0.0271
     38 H           1.5808   -2.7480    0.4291 H       1  UNL1        0.0271
     39 H          -1.1364   -2.9975   -0.5183 H       1  UNL1        0.0271
     40 H          -1.4723   -1.7724   -1.7234 H       1  UNL1        0.0271
     41 H          -0.3069    1.2865    1.8728 H       1  UNL1        0.0268
     42 H          -0.7869    2.5047    0.7162 H       1  UNL1        0.0268
     43 H           1.0712    2.0025   -0.7480 H       1  UNL1        0.0268
     44 H           1.6241    2.2401    0.9033 H       1  UNL1        0.0268
     45 H           3.5813   -3.2040   -0.8352 H       1  UNL1        0.0272
     46 H           3.2310   -1.9573   -1.9926 H       1  UNL1        0.0272
     47 H          -3.5097   -2.6394   -0.8638 H       1  UNL1        0.0268
     48 H          -3.0988   -2.2679    0.7916 H       1  UNL1        0.0268
     49 H           4.1181    1.1661    1.4608 H       1  UNL1        0.0348
     50 H          -2.5680    2.4802   -0.6808 H       1  UNL1        0.0271
     51 H          -3.3705    2.6511    0.8546 H       1  UNL1        0.0271
     52 H           5.3177   -0.7768   -1.6717 H       1  UNL1        0.0272
     53 H           6.0693   -1.5737   -0.2948 H       1  UNL1        0.0272
     54 H          -1.4336   -1.6484    2.0572 H       1  UNL1        0.0235
     55 H          -0.0102   -2.5010    1.6152 H       1  UNL1        0.0235
     56 H           0.1093   -0.8572    2.2345 H       1  UNL1        0.0235
     57 H           1.7805   -0.4096   -2.5493 H       1  UNL1        0.0235
     58 H           0.2579   -1.2281   -2.6534 H       1  UNL1        0.0235
     59 H           0.3221    0.4826   -2.2313 H       1  UNL1        0.0235
     60 H           6.1862    0.4355    0.9302 H       1  UNL1        0.0271
     61 H           6.2340    1.1272   -0.6698 H       1  UNL1        0.0271
     62 H          -4.0206    0.8693    2.2250 H       1  UNL1        0.0235
     63 H          -3.0957   -0.5982    2.2742 H       1  UNL1        0.0235
     64 H          -2.3169    0.9630    2.5331 H       1  UNL1        0.0235
     65 H          -6.5770    1.1309   -0.8289 H       1  UNL1        0.0599
     66 H          -5.0363    3.0412   -0.7144 H       1  UNL1        0.0290
     67 H          -4.4489    1.8291   -1.8417 H       1  UNL1        0.0290
     68 H           3.0207   -1.9110    1.8342 H       1  UNL1        0.0563
     69 H           4.4704   -0.9493    2.0421 H       1  UNL1        0.0563
     70 H          -6.7973   -1.0092   -1.6855 H       1  UNL1        0.0236
     71 H          -5.3552   -0.4547   -2.5433 H       1  UNL1        0.0236
     72 H          -5.4020   -2.0728   -1.8293 H       1  UNL1        0.0236
     73 H          -6.8197   -1.2242    0.8194 H       1  UNL1        0.0236
     74 H          -5.5091   -2.3821    0.6358 H       1  UNL1        0.0236
     75 H          -5.3453   -1.0400    1.7688 H       1  UNL1        0.0236
     76 H          -6.3335    2.2943    1.0723 H       1  UNL1        0.2098
     77 H           4.2217   -3.5907    1.1664 H       1  UNL1        0.2094
     78 H           3.3947    2.4166   -2.1332 H       1  UNL1        0.0274
     79 H           4.3790    3.8418   -1.8569 H       1  UNL1        0.0274
     80 H           5.1611    2.2855   -2.0273 H       1  UNL1        0.0274
     81 H           3.8892    4.6385    0.3395 H       1  UNL1        0.0534
     82 H           3.8565    3.4742    1.7792 H       1  UNL1        0.0534
@<TRIPOS>BOND
     1     1    25    1
     2     1    76    1
     3     2    27    1
     4     2    77    1
     5     3     4    1
     6     3     5    1
     7     3    12    1
     8     3    21    1
     9     4     6    1
    10     4    11    1
    11     4    22    1
    12     5     7    1
    13     5    13    1
    14     5    33    1
    15     6     8    1
    16     6    14    1
    17     6    34    1
    18     7    10    1
    19     7    19    1
    20     7    24    1
    21     8     9    1
    22     8    17    1
    23     8    35    1
    24     9    15    1
    25     9    20    1
    26     9    27    1
    27    10    16    1
    28    10    18    1
    29    10    36    1
    30    11    15    1
    31    11    37    1
    32    11    38    1
    33    12    16    1
    34    12    39    1
    35    12    40    1
    36    13    14    1
    37    13    41    1
    38    13    42    1
    39    14    43    1
    40    14    44    1
    41    15    45    1
    42    15    46    1
    43    16    47    1
    44    16    48    1
    45    17    23    1
    46    17    28    1
    47    17    49    1
    48    18    25    1
    49    18    29    1
    50    18    30    1
    51    19    26    1
    52    19    50    1
    53    19    51    1
    54    20    23    1
    55    20    52    1
    56    20    53    1
    57    21    54    1
    58    21    55    1
    59    21    56    1
    60    22    57    1
    61    22    58    1
    62    22    59    1
    63    23    60    1
    64    23    61    1
    65    24    62    1
    66    24    63    1
    67    24    64    1
    68    25    26    1
    69    25    65    1
    70    26    66    1
    71    26    67    1
    72    27    68    1
    73    27    69    1
    74    28    31    1
    75    28    32    2
    76    29    70    1
    77    29    71    1
    78    29    72    1
    79    30    73    1
    80    30    74    1
    81    30    75    1
    82    31    78    1
    83    31    79    1
    84    31    80    1
    85    32    81    1
    86    32    82    1
