@<TRIPOS>MOLECULE
5280441
 51 54 0 0 0
SMALL
GASTEIGER

@<TRIPOS>ATOM
      1 O          -0.5168   -1.9413    0.9466 O.3     1  UNL1       -0.3609
      2 O          -1.1760   -1.7872   -2.6605 O.3     1  UNL1       -0.3862
      3 O           1.5924   -2.7587   -2.4924 O.3     1  UNL1       -0.3865
      4 O           1.9654   -4.3991   -0.1525 O.3     1  UNL1       -0.3865
      5 O          -0.1304    0.7274   -0.0241 O.2     1  UNL1       -0.4540
      6 O          -0.0862   -3.2048    3.3471 O.3     1  UNL1       -0.3924
      7 O          -4.1309   -1.8413   -0.2303 O.3     1  UNL1       -0.5062
      8 O          -4.4742    2.8638    0.2290 O.3     1  UNL1       -0.5058
      9 O          -2.2215    4.2052    0.3381 O.2     1  UNL1       -0.2869
     10 O           6.1300    1.6132    0.0140 O.3     1  UNL1       -0.5068
     11 C          -0.3654   -1.7618   -1.4859 C.3     1  UNL1        0.1139
     12 C           0.5794   -2.9664   -1.5064 C.3     1  UNL1        0.1121
     13 C          -1.2831   -1.8038   -0.2543 C.3     1  UNL1        0.1193
     14 C           1.2684   -3.1559   -0.1552 C.3     1  UNL1        0.1117
     15 C           0.2448   -3.1489    0.9818 C.3     1  UNL1        0.1108
     16 C          -2.1173   -0.5442   -0.1259 C.ar    1  UNL1        0.0682
     17 C           0.9174   -3.2267    2.3485 C.3     1  UNL1        0.0729
     18 C          -1.5021    0.7026   -0.0125 C.ar    1  UNL1        0.1520
     19 C          -3.5096   -0.6336   -0.1198 C.ar    1  UNL1        0.1296
     20 C          -2.2782    1.8542    0.1069 C.ar    1  UNL1        0.1058
     21 C          -4.2852    0.5205   -0.0005 C.ar    1  UNL1        0.0226
     22 C          -3.6723    1.7690    0.1136 C.ar    1  UNL1        0.1347
     23 C          -1.6034    3.1556    0.2269 C.ar    1  UNL1        0.1966
     24 C           0.5089    1.9534    0.0802 C.ar    1  UNL1        0.1392
     25 C          -0.1268    3.1290    0.2068 C.ar    1  UNL1        0.0288
     26 C           1.9829    1.8647    0.0633 C.ar    1  UNL1        0.0176
     27 C           2.7444    2.9238   -0.4367 C.ar    1  UNL1       -0.0476
     28 C           2.6225    0.7204    0.5468 C.ar    1  UNL1       -0.0476
     29 C           4.1366    2.8393   -0.4532 C.ar    1  UNL1       -0.0195
     30 C           4.0147    0.6361    0.5304 C.ar    1  UNL1       -0.0195
     31 C           4.7717    1.6955    0.0304 C.ar    1  UNL1        0.1169
     32 H           0.2490   -0.8624   -1.5542 H       1  UNL1        0.0649
     33 H           0.0374   -3.8721   -1.8055 H       1  UNL1        0.0647
     34 H          -1.9397   -2.6788   -0.3359 H       1  UNL1        0.0676
     35 H           2.0142   -2.3659   -0.0122 H       1  UNL1        0.0647
     36 H          -0.4457   -3.9990    0.8957 H       1  UNL1        0.0646
     37 H           1.5776   -2.3699    2.5197 H       1  UNL1        0.0584
     38 H           1.4974   -4.1470    2.4630 H       1  UNL1        0.0584
     39 H          -0.5780   -1.8078   -3.4272 H       1  UNL1        0.2100
     40 H           2.1811   -3.5325   -2.4723 H       1  UNL1        0.2100
     41 H           1.3127   -5.1095   -0.2753 H       1  UNL1        0.2100
     42 H          -5.3707    0.4535    0.0046 H       1  UNL1        0.0691
     43 H          -0.5961   -2.3845    3.2336 H       1  UNL1        0.2095
     44 H           0.3748    4.0833    0.3161 H       1  UNL1        0.0693
     45 H          -5.0939   -1.7072   -0.2075 H       1  UNL1        0.2922
     46 H          -3.9408    3.6703    0.2990 H       1  UNL1        0.2922
     47 H           2.2875    3.8223   -0.8429 H       1  UNL1        0.0626
     48 H           2.0578   -0.1131    0.9557 H       1  UNL1        0.0626
     49 H           4.7152    3.6693   -0.8499 H       1  UNL1        0.0654
     50 H           4.5036   -0.2564    0.9111 H       1  UNL1        0.0654
     51 H           6.4909    2.4334   -0.3643 H       1  UNL1        0.2921
@<TRIPOS>BOND
     1     1    13    1
     2     1    15    1
     3     2    11    1
     4     2    39    1
     5     3    12    1
     6     3    40    1
     7     4    14    1
     8     4    41    1
     9     5    18   ar
    10     5    24   ar
    11     6    17    1
    12     6    43    1
    13     7    19    1
    14     7    45    1
    15     8    22    1
    16     8    46    1
    17     9    23    2
    18    10    31    1
    19    10    51    1
    20    11    12    1
    21    11    13    1
    22    11    32    1
    23    12    14    1
    24    12    33    1
    25    13    16    1
    26    13    34    1
    27    14    15    1
    28    14    35    1
    29    15    17    1
    30    15    36    1
    31    16    18   ar
    32    16    19   ar
    33    17    37    1
    34    17    38    1
    35    18    20   ar
    36    19    21   ar
    37    20    22   ar
    38    20    23   ar
    39    21    22   ar
    40    21    42    1
    41    23    25   ar
    42    24    25   ar
    43    24    26    1
    44    25    44    1
    45    26    27   ar
    46    26    28   ar
    47    27    29   ar
    48    27    47    1
    49    28    30   ar
    50    28    48    1
    51    29    31   ar
    52    29    49    1
    53    30    31   ar
    54    30    50    1
