@<TRIPOS>MOLECULE
11996452
 42 44 0 0 0
SMALL
GASTEIGER

@<TRIPOS>ATOM
      1 O          -2.1197    1.0704    1.5327 O.3     1  UNL1       -0.3886
      2 C           1.0724    0.0080   -0.5114 C.3     1  UNL1       -0.0289
      3 C           2.0897    1.0286   -0.0609 C.3     1  UNL1       -0.0284
      4 C           0.9053    1.4546   -0.8802 C.3     1  UNL1       -0.0319
      5 C           0.2447   -0.7017    0.5383 C.3     1  UNL1       -0.0294
      6 C          -1.2733   -0.7523    0.2493 C.3     1  UNL1       -0.0090
      7 C          -0.2059    2.2547   -0.3063 C.3     1  UNL1       -0.0468
      8 C           0.5449   -2.2231    0.5320 C.3     1  UNL1       -0.0404
      9 C          -2.0873    0.5591    0.1874 C.3     1  UNL1        0.0664
     10 C          -1.3610   -1.7191   -0.9370 C.3     1  UNL1       -0.0471
     11 C          -1.5575    1.6767   -0.7292 C.3     1  UNL1       -0.0237
     12 C           2.0793    1.3898    1.3871 C.3     1  UNL1       -0.0593
     13 C           3.4561    1.0782   -0.6567 C.3     1  UNL1       -0.0593
     14 C          -0.2533   -2.7557   -0.6748 C.3     1  UNL1       -0.0498
     15 C           2.0128   -2.6244    0.5248 C.3     1  UNL1       -0.0621
     16 C          -3.5472    0.2563   -0.1953 C.3     1  UNL1       -0.0358
     17 H           1.3228   -0.6268   -1.3554 H       1  UNL1        0.0312
     18 H           1.0707    1.7052   -1.9239 H       1  UNL1        0.0309
     19 H           0.3968   -0.3421    1.5556 H       1  UNL1        0.0310
     20 H          -1.7113   -1.2968    1.1049 H       1  UNL1        0.0331
     21 H          -0.1220    3.2613   -0.7377 H       1  UNL1        0.0269
     22 H          -0.1786    2.4154    0.7706 H       1  UNL1        0.0269
     23 H           0.1019   -2.6570    1.4408 H       1  UNL1        0.0301
     24 H          -1.1791   -1.2031   -1.8863 H       1  UNL1        0.0269
     25 H          -2.3396   -2.2053   -1.0022 H       1  UNL1        0.0269
     26 H          -2.2723    2.5108   -0.6976 H       1  UNL1        0.0293
     27 H          -1.5262    1.3322   -1.7703 H       1  UNL1        0.0293
     28 H           2.5591    2.3670    1.5234 H       1  UNL1        0.0235
     29 H           2.6752    0.6631    1.9527 H       1  UNL1        0.0235
     30 H           1.1158    1.4624    1.8922 H       1  UNL1        0.0235
     31 H           3.8736    2.0883   -0.5901 H       1  UNL1        0.0235
     32 H           3.4464    0.7918   -1.7141 H       1  UNL1        0.0235
     33 H           4.1308    0.3910   -0.1352 H       1  UNL1        0.0235
     34 H          -0.6800   -3.7386   -0.4466 H       1  UNL1        0.0268
     35 H           0.3717   -2.8702   -1.5675 H       1  UNL1        0.0268
     36 H           2.5231   -2.3296   -0.3968 H       1  UNL1        0.0233
     37 H           2.5407   -2.1681    1.3683 H       1  UNL1        0.0233
     38 H           2.1081   -3.7118    0.6158 H       1  UNL1        0.0233
     39 H          -3.6343   -0.0915   -1.2294 H       1  UNL1        0.0257
     40 H          -3.9757   -0.5038    0.4682 H       1  UNL1        0.0257
     41 H          -4.1760    1.1473   -0.0819 H       1  UNL1        0.0257
     42 H          -2.6560    1.8817    1.5346 H       1  UNL1        0.2102
@<TRIPOS>BOND
     1     1     9    1
     2     1    42    1
     3     2     3    1
     4     2     4    1
     5     2     5    1
     6     2    17    1
     7     3     4    1
     8     3    12    1
     9     3    13    1
    10     4     7    1
    11     4    18    1
    12     5     6    1
    13     5     8    1
    14     5    19    1
    15     6     9    1
    16     6    10    1
    17     6    20    1
    18     7    11    1
    19     7    21    1
    20     7    22    1
    21     8    14    1
    22     8    15    1
    23     8    23    1
    24     9    11    1
    25     9    16    1
    26    10    14    1
    27    10    24    1
    28    10    25    1
    29    11    26    1
    30    11    27    1
    31    12    28    1
    32    12    29    1
    33    12    30    1
    34    13    31    1
    35    13    32    1
    36    13    33    1
    37    14    34    1
    38    14    35    1
    39    15    36    1
    40    15    37    1
    41    15    38    1
    42    16    39    1
    43    16    40    1
    44    16    41    1
