@<TRIPOS>MOLECULE
442402
 39 41 0 0 0
SMALL
GASTEIGER

@<TRIPOS>ATOM
      1 C          -0.1481    0.4003    0.3744 C.3     1  UNL1       -0.0114
      2 C           1.1484    1.1366   -0.0192 C.3     1  UNL1       -0.0129
      3 C          -0.0477   -1.1746    0.3884 C.3     1  UNL1       -0.0219
      4 C           0.6622    1.2102    1.3899 C.3     1  UNL1       -0.0388
      5 C          -1.5153    0.9884   -0.1012 C.3     1  UNL1       -0.0282
      6 C          -1.4258   -1.8615    0.2287 C.3     1  UNL1       -0.0468
      7 C          -2.0591    0.1188   -1.2558 C.3     1  UNL1       -0.0473
      8 C           0.8861   -1.6501   -0.7666 C.3     1  UNL1       -0.0285
      9 C           2.3267    0.3248   -0.3743 C.2     1  UNL1       -0.0729
     10 C          -2.2926   -1.3429   -0.9077 C.3     1  UNL1       -0.0520
     11 C           0.5142   -1.7075    1.7348 C.3     1  UNL1       -0.0587
     12 C          -2.5098    1.0686    1.0771 C.3     1  UNL1       -0.0593
     13 C          -1.4141    2.4268   -0.6714 C.3     1  UNL1       -0.0593
     14 C           2.2171   -0.9556   -0.7683 C.2     1  UNL1       -0.0842
     15 C           3.6578    1.0178   -0.3289 C.3     1  UNL1       -0.0435
     16 H           1.0975    2.0578   -0.5852 H       1  UNL1        0.0351
     17 H           1.2494    0.7278    2.1601 H       1  UNL1        0.0277
     18 H           0.2679    2.1606    1.7342 H       1  UNL1        0.0277
     19 H          -1.9917   -1.7711    1.1633 H       1  UNL1        0.0271
     20 H          -1.2951   -2.9447    0.0974 H       1  UNL1        0.0271
     21 H          -1.3443    0.1566   -2.0897 H       1  UNL1        0.0271
     22 H          -2.9942    0.5378   -1.6501 H       1  UNL1        0.0271
     23 H           0.4217   -1.4929   -1.7470 H       1  UNL1        0.0313
     24 H           1.0580   -2.7302   -0.6733 H       1  UNL1        0.0313
     25 H          -2.1280   -1.9496   -1.8068 H       1  UNL1        0.0266
     26 H          -3.3460   -1.4932   -0.6395 H       1  UNL1        0.0266
     27 H          -0.0771   -1.3374    2.5804 H       1  UNL1        0.0235
     28 H           0.4865   -2.8034    1.7660 H       1  UNL1        0.0235
     29 H           1.5557   -1.4181    1.9054 H       1  UNL1        0.0235
     30 H          -2.6114    0.1322    1.6261 H       1  UNL1        0.0235
     31 H          -2.1878    1.8181    1.8096 H       1  UNL1        0.0235
     32 H          -3.5083    1.3576    0.7297 H       1  UNL1        0.0235
     33 H          -0.9929    3.1301    0.0543 H       1  UNL1        0.0235
     34 H          -0.7977    2.4626   -1.5765 H       1  UNL1        0.0235
     35 H          -2.4045    2.8079   -0.9494 H       1  UNL1        0.0235
     36 H           3.0890   -1.5237   -1.0770 H       1  UNL1        0.0572
     37 H           3.6621    1.8794   -1.0045 H       1  UNL1        0.0274
     38 H           4.4790    0.3567   -0.6250 H       1  UNL1        0.0274
     39 H           3.8648    1.3728    0.6860 H       1  UNL1        0.0274
@<TRIPOS>BOND
     1     1     2    1
     2     1     3    1
     3     1     4    1
     4     1     5    1
     5     2     4    1
     6     2     9    1
     7     2    16    1
     8     3     6    1
     9     3     8    1
    10     3    11    1
    11     4    17    1
    12     4    18    1
    13     5     7    1
    14     5    12    1
    15     5    13    1
    16     6    10    1
    17     6    19    1
    18     6    20    1
    19     7    10    1
    20     7    21    1
    21     7    22    1
    22     8    14    1
    23     8    23    1
    24     8    24    1
    25     9    14    2
    26     9    15    1
    27    10    25    1
    28    10    26    1
    29    11    27    1
    30    11    28    1
    31    11    29    1
    32    12    30    1
    33    12    31    1
    34    12    32    1
    35    13    33    1
    36    13    34    1
    37    13    35    1
    38    14    36    1
    39    15    37    1
    40    15    38    1
    41    15    39    1
