@<TRIPOS>MOLECULE
10910653
 39 41 0 0 0
SMALL
GASTEIGER

@<TRIPOS>ATOM
      1 C          -0.9028   -0.0723    0.5617 C.3     1  UNL1       -0.0255
      2 C          -2.2418    0.4588    0.1206 C.3     1  UNL1       -0.0281
      3 C          -1.1596    1.4116    0.5533 C.3     1  UNL1       -0.0314
      4 C           0.0825   -0.6111   -0.4398 C.3     1  UNL1       -0.0135
      5 C          -0.4380    2.2605   -0.4479 C.3     1  UNL1       -0.0457
      6 C           0.1878   -2.1505   -0.4726 C.3     1  UNL1       -0.0368
      7 C           1.5079   -0.1564   -0.1489 C.2     1  UNL1       -0.0669
      8 C          -3.3848    0.2625    1.0598 C.3     1  UNL1       -0.0593
      9 C          -2.6500    0.3844   -1.3119 C.3     1  UNL1       -0.0593
     10 C           1.0581    2.3776   -0.1361 C.3     1  UNL1       -0.0315
     11 C           1.3557   -2.4587    0.4560 C.3     1  UNL1       -0.0462
     12 C           2.3673   -1.3744    0.1075 C.3     1  UNL1       -0.0310
     13 C           1.9242    1.1253   -0.0306 C.2     1  UNL1       -0.0731
     14 C          -1.0757   -2.9256   -0.1303 C.3     1  UNL1       -0.0619
     15 C           3.3691    1.4683    0.2591 C.3     1  UNL1       -0.0435
     16 H          -0.8066   -0.5291    1.5406 H       1  UNL1        0.0315
     17 H          -1.2499    1.9047    1.5145 H       1  UNL1        0.0309
     18 H          -0.1422   -0.3045   -1.4642 H       1  UNL1        0.0351
     19 H          -0.8798    3.2645   -0.4207 H       1  UNL1        0.0271
     20 H          -0.5430    1.9259   -1.4820 H       1  UNL1        0.0271
     21 H           0.4849   -2.4460   -1.4903 H       1  UNL1        0.0304
     22 H          -3.0774    0.3225    2.1100 H       1  UNL1        0.0235
     23 H          -4.1530    1.0264    0.8983 H       1  UNL1        0.0235
     24 H          -3.8438   -0.7205    0.9081 H       1  UNL1        0.0235
     25 H          -1.8658    0.4988   -2.0593 H       1  UNL1        0.0235
     26 H          -3.1302   -0.5801   -1.5131 H       1  UNL1        0.0235
     27 H          -3.3918    1.1636   -1.5237 H       1  UNL1        0.0235
     28 H           1.1551    2.9161    0.8169 H       1  UNL1        0.0310
     29 H           1.4980    3.0276   -0.9041 H       1  UNL1        0.0310
     30 H           1.7636   -3.4611    0.2917 H       1  UNL1        0.0271
     31 H           1.0563   -2.3824    1.5090 H       1  UNL1        0.0271
     32 H           2.9141   -1.6407   -0.8040 H       1  UNL1        0.0310
     33 H           3.0753   -1.2449    0.9308 H       1  UNL1        0.0310
     34 H          -1.4003   -2.7532    0.9005 H       1  UNL1        0.0233
     35 H          -1.8949   -2.6511   -0.8015 H       1  UNL1        0.0233
     36 H          -0.9013   -4.0014   -0.2405 H       1  UNL1        0.0233
     37 H           3.4607    1.8910    1.2650 H       1  UNL1        0.0274
     38 H           3.7319    2.2097   -0.4613 H       1  UNL1        0.0274
     39 H           4.0451    0.6124    0.1887 H       1  UNL1        0.0274
@<TRIPOS>BOND
     1     1     2    1
     2     1     3    1
     3     1     4    1
     4     1    16    1
     5     2     3    1
     6     2     8    1
     7     2     9    1
     8     3     5    1
     9     3    17    1
    10     4     6    1
    11     4     7    1
    12     4    18    1
    13     5    10    1
    14     5    19    1
    15     5    20    1
    16     6    11    1
    17     6    14    1
    18     6    21    1
    19     7    12    1
    20     7    13    2
    21     8    22    1
    22     8    23    1
    23     8    24    1
    24     9    25    1
    25     9    26    1
    26     9    27    1
    27    10    13    1
    28    10    28    1
    29    10    29    1
    30    11    12    1
    31    11    30    1
    32    11    31    1
    33    12    32    1
    34    12    33    1
    35    13    15    1
    36    14    34    1
    37    14    35    1
    38    14    36    1
    39    15    37    1
    40    15    38    1
    41    15    39    1
