@<TRIPOS>MOLECULE
92231
 40 42 0 0 0
SMALL
GASTEIGER

@<TRIPOS>ATOM
      1 O           1.1769   -2.2225   -1.4300 O.3     1  UNL1       -0.3885
      2 C          -1.0043   -0.2948    0.6600 C.3     1  UNL1       -0.0263
      3 C          -2.3165   -0.2668   -0.0796 C.3     1  UNL1       -0.0283
      4 C          -1.8099    0.9803    0.5954 C.3     1  UNL1       -0.0316
      5 C           0.2948   -0.4016   -0.0939 C.3     1  UNL1       -0.0023
      6 C           1.3444    0.5671    0.5185 C.3     1  UNL1       -0.0144
      7 C           0.9576   -1.8106   -0.0717 C.3     1  UNL1        0.0670
      8 C          -1.3296    2.1551   -0.2019 C.3     1  UNL1       -0.0457
      9 C          -3.4654   -0.9662    0.5669 C.3     1  UNL1       -0.0593
     10 C          -2.3461   -0.3609   -1.5675 C.3     1  UNL1       -0.0593
     11 C           2.6740   -0.1634    0.2944 C.3     1  UNL1       -0.0436
     12 C           2.3208   -1.6124    0.6045 C.3     1  UNL1       -0.0234
     13 C          -0.0419    2.7484    0.3809 C.3     1  UNL1       -0.0314
     14 C           1.2165    1.9887   -0.0082 C.2     1  UNL1       -0.0732
     15 C           0.1720   -2.9453    0.5772 C.3     1  UNL1       -0.0358
     16 C           2.1567    2.6047   -0.7450 C.2     1  UNL1       -0.0992
     17 H          -0.9531   -0.7412    1.6469 H       1  UNL1        0.0313
     18 H          -2.2850    1.2992    1.5178 H       1  UNL1        0.0309
     19 H           0.1775   -0.1116   -1.1421 H       1  UNL1        0.0337
     20 H           1.1949    0.6202    1.6079 H       1  UNL1        0.0349
     21 H          -2.1147    2.9204   -0.1500 H       1  UNL1        0.0271
     22 H          -1.1843    1.9565   -1.2657 H       1  UNL1        0.0271
     23 H          -3.4330   -0.9002    1.6604 H       1  UNL1        0.0235
     24 H          -4.4160   -0.5310    0.2399 H       1  UNL1        0.0235
     25 H          -3.4681   -2.0292    0.3027 H       1  UNL1        0.0235
     26 H          -1.5538    0.1553   -2.1095 H       1  UNL1        0.0235
     27 H          -2.2974   -1.4127   -1.8732 H       1  UNL1        0.0235
     28 H          -3.2917    0.0443   -1.9464 H       1  UNL1        0.0235
     29 H           3.4695    0.2111    0.9464 H       1  UNL1        0.0272
     30 H           3.0135   -0.0894   -0.7454 H       1  UNL1        0.0272
     31 H           3.0879   -2.2935    0.2224 H       1  UNL1        0.0293
     32 H           2.2449   -1.7416    1.6909 H       1  UNL1        0.0293
     33 H          -0.1035    2.7980    1.4756 H       1  UNL1        0.0310
     34 H           0.0323    3.7882    0.0361 H       1  UNL1        0.0310
     35 H           0.7065   -3.8960    0.4631 H       1  UNL1        0.0257
     36 H           0.0117   -2.7807    1.6470 H       1  UNL1        0.0257
     37 H          -0.8008   -3.0816    0.0919 H       1  UNL1        0.0257
     38 H           0.3082   -2.2996   -1.8608 H       1  UNL1        0.2102
     39 H           3.0824    2.1223   -1.0337 H       1  UNL1        0.0534
     40 H           2.0243    3.6274   -1.0842 H       1  UNL1        0.0534
@<TRIPOS>BOND
     1     1     7    1
     2     1    38    1
     3     2     3    1
     4     2     4    1
     5     2     5    1
     6     2    17    1
     7     3     4    1
     8     3     9    1
     9     3    10    1
    10     4     8    1
    11     4    18    1
    12     5     6    1
    13     5     7    1
    14     5    19    1
    15     6    11    1
    16     6    14    1
    17     6    20    1
    18     7    12    1
    19     7    15    1
    20     8    13    1
    21     8    21    1
    22     8    22    1
    23     9    23    1
    24     9    24    1
    25     9    25    1
    26    10    26    1
    27    10    27    1
    28    10    28    1
    29    11    12    1
    30    11    29    1
    31    11    30    1
    32    12    31    1
    33    12    32    1
    34    13    14    1
    35    13    33    1
    36    13    34    1
    37    14    16    2
    38    15    35    1
    39    15    36    1
    40    15    37    1
    41    16    39    1
    42    16    40    1
