@<TRIPOS>MOLECULE
1549095
 25 25 0 0 0
SMALL
GASTEIGER

@<TRIPOS>ATOM
      1 O          -2.1540    1.7430   -0.4416 O.3     1  UNL1       -0.4914
      2 O          -3.6643   -0.5729   -0.1573 O.3     1  UNL1       -0.5033
      3 O           4.8239    0.9658   -0.5836 O.3     1  UNL1       -0.3910
      4 C           0.4806   -0.7518    0.0039 C.ar    1  UNL1       -0.0216
      5 C          -0.1535    0.4749   -0.1935 C.ar    1  UNL1       -0.0092
      6 C          -1.5459    0.5394   -0.2478 C.ar    1  UNL1        0.1618
      7 C          -0.2776   -1.9139    0.1470 C.ar    1  UNL1       -0.0509
      8 C          -2.3040   -0.6228   -0.1047 C.ar    1  UNL1        0.1585
      9 C          -1.6699   -1.8494    0.0928 C.ar    1  UNL1       -0.0160
     10 C           1.9323   -0.8194    0.0615 C.2     1  UNL1       -0.0563
     11 C           2.7642    0.2158    0.3182 C.2     1  UNL1       -0.0584
     12 C           4.2529    0.0941    0.3821 C.3     1  UNL1        0.0627
     13 C          -2.4846    2.4972    0.7229 C.3     1  UNL1        0.0790
     14 H           0.4028    1.3982   -0.3300 H       1  UNL1        0.0661
     15 H           0.1990   -2.8787    0.3031 H       1  UNL1        0.0625
     16 H          -2.2485   -2.7623    0.2059 H       1  UNL1        0.0655
     17 H           2.3684   -1.8016   -0.1087 H       1  UNL1        0.0621
     18 H           2.3761    1.2091    0.5249 H       1  UNL1        0.0595
     19 H           4.6100    0.3966    1.3709 H       1  UNL1        0.0601
     20 H           4.6042   -0.9240    0.1869 H       1  UNL1        0.0601
     21 H          -1.5801    2.7496    1.2855 H       1  UNL1        0.0660
     22 H          -3.1797    1.9401    1.3588 H       1  UNL1        0.0660
     23 H          -2.9685    3.4245    0.4045 H       1  UNL1        0.0660
     24 H          -4.0191   -1.4708   -0.0385 H       1  UNL1        0.2923
     25 H           4.5397    0.6600   -1.4621 H       1  UNL1        0.2098
@<TRIPOS>BOND
     1     1     6    1
     2     1    13    1
     3     2     8    1
     4     2    24    1
     5     3    12    1
     6     3    25    1
     7     4     5   ar
     8     4     7   ar
     9     4    10    1
    10     5     6   ar
    11     5    14    1
    12     6     8   ar
    13     7     9   ar
    14     7    15    1
    15     8     9   ar
    16     9    16    1
    17    10    11    2
    18    10    17    1
    19    11    12    1
    20    11    18    1
    21    12    19    1
    22    12    20    1
    23    13    21    1
    24    13    22    1
    25    13    23    1
