@<TRIPOS>MOLECULE
4276
 26 27 0 0 0
SMALL
GASTEIGER

@<TRIPOS>ATOM
      1 O           2.7824    0.0131   -0.1526 O.3     1  UNL1       -0.4489
      2 O           1.8497   -2.2032   -0.3110 O.3     1  UNL1       -0.4525
      3 O           1.1888    2.3416    0.4637 O.3     1  UNL1       -0.4913
      4 C          -1.2496   -0.4104    0.4912 C.ar    1  UNL1       -0.0365
      5 C           1.4415   -0.0011    0.0789 C.ar    1  UNL1        0.2075
      6 C           0.9088   -1.2666   -0.0116 C.ar    1  UNL1        0.1702
      7 C           0.6595    1.0963    0.3755 C.ar    1  UNL1        0.1656
      8 C          -0.4354   -1.5047    0.1893 C.ar    1  UNL1       -0.0124
      9 C          -0.7052    0.8826    0.5837 C.ar    1  UNL1       -0.0126
     10 C          -2.7104   -0.6144    0.7178 C.3     1  UNL1       -0.0095
     11 C           3.0342   -1.3852   -0.3995 C.3     1  UNL1        0.2334
     12 C          -3.5241   -0.4984   -0.5445 C.2     1  UNL1       -0.0868
     13 C           1.2272    3.1225   -0.7325 C.3     1  UNL1        0.0790
     14 C          -4.4675    0.4279   -0.7483 C.2     1  UNL1       -0.1023
     15 H          -0.8390   -2.5086    0.1131 H       1  UNL1        0.0658
     16 H          -1.3486    1.7278    0.8186 H       1  UNL1        0.0658
     17 H          -2.8838   -1.6078    1.1518 H       1  UNL1        0.0355
     18 H          -3.0668    0.0940    1.4773 H       1  UNL1        0.0355
     19 H           3.4609   -1.4929   -1.4033 H       1  UNL1        0.1166
     20 H           3.7648   -1.7451    0.3341 H       1  UNL1        0.1166
     21 H          -3.3367   -1.2281   -1.3286 H       1  UNL1        0.0570
     22 H           1.6790    4.0895   -0.4954 H       1  UNL1        0.0660
     23 H           0.2143    3.2909   -1.1114 H       1  UNL1        0.0660
     24 H           1.8373    2.6267   -1.4941 H       1  UNL1        0.0660
     25 H          -5.0231    0.4508   -1.6794 H       1  UNL1        0.0532
     26 H          -4.6998    1.1748    0.0026 H       1  UNL1        0.0532
@<TRIPOS>BOND
     1     1     5    1
     2     1    11    1
     3     2     6    1
     4     2    11    1
     5     3     7    1
     6     3    13    1
     7     4     8   ar
     8     4     9   ar
     9     4    10    1
    10     5     6   ar
    11     5     7   ar
    12     6     8   ar
    13     7     9   ar
    14     8    15    1
    15     9    16    1
    16    10    12    1
    17    10    17    1
    18    10    18    1
    19    11    19    1
    20    11    20    1
    21    12    14    2
    22    12    21    1
    23    13    22    1
    24    13    23    1
    25    13    24    1
    26    14    25    1
    27    14    26    1
