@<TRIPOS>MOLECULE
442495
 27 27 0 0 0
SMALL
GASTEIGER

@<TRIPOS>ATOM
      1 O           0.6224    2.1079   -0.4721 O.2     1  UNL1       -0.2924
      2 C          -2.2243   -0.0994   -0.1985 C.3     1  UNL1       -0.0366
      3 C          -1.4980   -1.4130    0.1179 C.3     1  UNL1       -0.0460
      4 C          -1.4138    1.1027    0.2950 C.3     1  UNL1        0.0127
      5 C          -0.1258   -1.4512   -0.5520 C.3     1  UNL1       -0.0242
      6 C           0.7010   -0.2537   -0.1984 C.2     1  UNL1       -0.0062
      7 C           0.0228    1.0745   -0.1835 C.2     1  UNL1        0.1594
      8 C          -3.6212   -0.0926    0.4198 C.3     1  UNL1       -0.0620
      9 C           1.9986   -0.3049    0.1279 C.2     1  UNL1       -0.0692
     10 C           2.7650   -1.5954    0.1410 C.3     1  UNL1       -0.0434
     11 C           2.7733    0.9251    0.5029 C.3     1  UNL1       -0.0434
     12 H          -2.3347   -0.0214   -1.2886 H       1  UNL1        0.0302
     13 H          -2.0929   -2.2640   -0.2354 H       1  UNL1        0.0271
     14 H          -1.3858   -1.5303    1.2038 H       1  UNL1        0.0271
     15 H          -1.3965    1.1463    1.3906 H       1  UNL1        0.0348
     16 H          -1.8774    2.0268   -0.0699 H       1  UNL1        0.0348
     17 H          -0.2525   -1.4809   -1.6415 H       1  UNL1        0.0314
     18 H           0.3401   -2.3964   -0.2604 H       1  UNL1        0.0314
     19 H          -3.5746   -0.1776    1.5108 H       1  UNL1        0.0233
     20 H          -4.1499    0.8344    0.1741 H       1  UNL1        0.0233
     21 H          -4.2177   -0.9290    0.0404 H       1  UNL1        0.0233
     22 H           3.8056   -1.4184   -0.1556 H       1  UNL1        0.0274
     23 H           2.7707   -2.0242    1.1479 H       1  UNL1        0.0274
     24 H           2.3871   -2.3392   -0.5652 H       1  UNL1        0.0274
     25 H           3.6899    0.6433    1.0358 H       1  UNL1        0.0274
     26 H           3.0845    1.4830   -0.3860 H       1  UNL1        0.0274
     27 H           2.2346    1.5742    1.2005 H       1  UNL1        0.0274
@<TRIPOS>BOND
     1     1     7    2
     2     2     3    1
     3     2     4    1
     4     2     8    1
     5     2    12    1
     6     3     5    1
     7     3    13    1
     8     3    14    1
     9     4     7    1
    10     4    15    1
    11     4    16    1
    12     5     6    1
    13     5    17    1
    14     5    18    1
    15     6     7    1
    16     6     9    2
    17     8    19    1
    18     8    20    1
    19     8    21    1
    20     9    10    1
    21     9    11    1
    22    10    22    1
    23    10    23    1
    24    10    24    1
    25    11    25    1
    26    11    26    1
    27    11    27    1
