@<TRIPOS>MOLECULE
10207
 30 32 0 0 0
SMALL
GASTEIGER

@<TRIPOS>ATOM
      1 O           1.5525   -2.9525   -0.0584 O.3     1  UNL1       -0.5060
      2 O          -0.9518   -2.4244    0.0443 O.2     1  UNL1       -0.2864
      3 O          -0.0347    2.8370   -0.1418 O.2     1  UNL1       -0.2866
      4 O          -3.4864   -2.0663    0.1507 O.3     1  UNL1       -0.5060
      5 O           5.1655    0.9606    1.0120 O.3     1  UNL1       -0.3904
      6 C           0.8793    0.6731   -0.1261 C.ar    1  UNL1        0.0369
      7 C           0.6396   -0.7018   -0.0772 C.ar    1  UNL1        0.0745
      8 C          -1.8659   -0.2613    0.0257 C.ar    1  UNL1        0.0745
      9 C          -1.6262    1.1137   -0.0232 C.ar    1  UNL1        0.0366
     10 C          -0.7417   -1.2192    0.0006 C.2     1  UNL1        0.2015
     11 C          -0.2448    1.6310   -0.1010 C.2     1  UNL1        0.1947
     12 C           2.1934    1.1506   -0.1998 C.ar    1  UNL1       -0.0446
     13 C           1.7140   -1.5991   -0.1019 C.ar    1  UNL1        0.1287
     14 C           3.2611    0.2529   -0.2243 C.ar    1  UNL1       -0.0180
     15 C           3.0220   -1.1191   -0.1755 C.ar    1  UNL1       -0.0141
     16 C          -3.1800   -0.7387    0.0993 C.ar    1  UNL1        0.1283
     17 C          -2.7005    2.0111    0.0014 C.ar    1  UNL1       -0.0500
     18 C           4.6608    0.7624   -0.3028 C.3     1  UNL1        0.0694
     19 C          -4.2477    0.1591    0.1233 C.ar    1  UNL1       -0.0194
     20 C          -4.0084    1.5311    0.0746 C.ar    1  UNL1       -0.0576
     21 H           2.3937    2.2187   -0.2365 H       1  UNL1        0.0628
     22 H           3.8602   -1.8121   -0.1932 H       1  UNL1        0.0658
     23 H          -2.5405    3.0853   -0.0356 H       1  UNL1        0.0625
     24 H           5.3153    0.0561   -0.8243 H       1  UNL1        0.0607
     25 H           4.7123    1.7120   -0.8465 H       1  UNL1        0.0607
     26 H          -5.2706   -0.2037    0.1804 H       1  UNL1        0.0654
     27 H          -4.8414    2.2279    0.0936 H       1  UNL1        0.0619
     28 H           2.4219   -3.3871   -0.0866 H       1  UNL1        0.2922
     29 H          -2.6825   -2.6064    0.1290 H       1  UNL1        0.2922
     30 H           4.5118    1.4753    1.5155 H       1  UNL1        0.2098
@<TRIPOS>BOND
     1     1    13    1
     2     1    28    1
     3     2    10    2
     4     3    11    2
     5     4    16    1
     6     4    29    1
     7     5    18    1
     8     5    30    1
     9     6     7   ar
    10     6    11    1
    11     6    12   ar
    12     7    10    1
    13     7    13   ar
    14     8     9   ar
    15     8    10    1
    16     8    16   ar
    17     9    11    1
    18     9    17   ar
    19    12    14   ar
    20    12    21    1
    21    13    15   ar
    22    14    15   ar
    23    14    18    1
    24    15    22    1
    25    16    19   ar
    26    17    20   ar
    27    17    23    1
    28    18    24    1
    29    18    25    1
    30    19    20   ar
    31    19    26    1
    32    20    27    1
