@<TRIPOS>MOLECULE
10104370
 39 39 0 0 0
SMALL
GASTEIGER

@<TRIPOS>ATOM
      1 C          -1.0478    0.4709    0.1590 C.3     1  UNL1       -0.0164
      2 C          -2.0800    0.5482    1.2899 C.3     1  UNL1       -0.0426
      3 C          -1.7578    0.4342   -1.2048 C.3     1  UNL1       -0.0280
      4 C          -3.0351   -0.6493    1.2531 C.3     1  UNL1       -0.0315
      5 C          -0.0797    1.6133    0.2274 C.2     1  UNL1       -0.0729
      6 C          -3.5216   -0.9933   -0.1317 C.2     1  UNL1       -0.0765
      7 C          -2.9452   -0.4839   -1.2336 C.2     1  UNL1       -0.0845
      8 C           1.3826    1.2668    0.3917 C.3     1  UNL1       -0.0283
      9 C           1.9634    0.4399   -0.7631 C.3     1  UNL1       -0.0308
     10 C          -4.6838   -1.9386   -0.2089 C.3     1  UNL1       -0.0438
     11 C          -0.4906    2.8856    0.1110 C.2     1  UNL1       -0.0992
     12 C           3.4403    0.1982   -0.6102 C.2     1  UNL1       -0.0850
     13 C           4.0585   -0.8348   -0.0068 C.2     1  UNL1       -0.0796
     14 C           5.5452   -1.0141    0.1100 C.3     1  UNL1       -0.0440
     15 C           3.2516   -1.9431    0.6170 C.3     1  UNL1       -0.0440
     16 H          -0.5073   -0.4767    0.2884 H       1  UNL1        0.0349
     17 H          -2.6756    1.4674    1.2117 H       1  UNL1        0.0274
     18 H          -1.5821    0.5802    2.2672 H       1  UNL1        0.0274
     19 H          -1.0425    0.1033   -1.9686 H       1  UNL1        0.0313
     20 H          -2.1090    1.4251   -1.5165 H       1  UNL1        0.0313
     21 H          -3.8895   -0.4297    1.9046 H       1  UNL1        0.0310
     22 H          -2.5302   -1.5290    1.6714 H       1  UNL1        0.0310
     23 H          -3.3355   -0.7394   -2.2153 H       1  UNL1        0.0572
     24 H           1.5013    0.7181    1.3354 H       1  UNL1        0.0313
     25 H           1.9751    2.1848    0.5053 H       1  UNL1        0.0313
     26 H           1.8107    0.9792   -1.7075 H       1  UNL1        0.0310
     27 H           1.4282   -0.5068   -0.8894 H       1  UNL1        0.0310
     28 H          -4.4320   -2.8884    0.2737 H       1  UNL1        0.0274
     29 H          -4.9717   -2.1560   -1.2429 H       1  UNL1        0.0274
     30 H          -5.5554   -1.5113    0.2972 H       1  UNL1        0.0274
     31 H           0.2171    3.7077    0.1456 H       1  UNL1        0.0534
     32 H          -1.5346    3.1486   -0.0187 H       1  UNL1        0.0534
     33 H           4.0703    0.9783   -1.0359 H       1  UNL1        0.0572
     34 H           5.8563   -1.9477   -0.3696 H       1  UNL1        0.0274
     35 H           6.0879   -0.1937   -0.3712 H       1  UNL1        0.0274
     36 H           5.8460   -1.0425    1.1622 H       1  UNL1        0.0274
     37 H           2.1802   -1.7421    0.6834 H       1  UNL1        0.0274
     38 H           3.5957   -2.1211    1.6421 H       1  UNL1        0.0274
     39 H           3.3860   -2.8689    0.0478 H       1  UNL1        0.0274
@<TRIPOS>BOND
     1     1     2    1
     2     1     3    1
     3     1     5    1
     4     1    16    1
     5     2     4    1
     6     2    17    1
     7     2    18    1
     8     3     7    1
     9     3    19    1
    10     3    20    1
    11     4     6    1
    12     4    21    1
    13     4    22    1
    14     5     8    1
    15     5    11    2
    16     6     7    2
    17     6    10    1
    18     7    23    1
    19     8     9    1
    20     8    24    1
    21     8    25    1
    22     9    12    1
    23     9    26    1
    24     9    27    1
    25    10    28    1
    26    10    29    1
    27    10    30    1
    28    11    31    1
    29    11    32    1
    30    12    13    2
    31    12    33    1
    32    13    14    1
    33    13    15    1
    34    14    34    1
    35    14    35    1
    36    14    36    1
    37    15    37    1
    38    15    38    1
    39    15    39    1
