@<TRIPOS>MOLECULE
92139
 37 37 0 0 0
SMALL
GASTEIGER

@<TRIPOS>ATOM
      1 C           0.1974    1.9666    0.0436 C.3     1  UNL1       -0.0184
      2 C          -1.2506    1.4651   -0.1615 C.3     1  UNL1       -0.0430
      3 C           1.2343    0.8572    0.0386 C.ar    1  UNL1       -0.0445
      4 C          -1.7786    0.5254    0.9341 C.3     1  UNL1       -0.0340
      5 C           0.5458    3.0166   -1.0192 C.3     1  UNL1       -0.0584
      6 C           2.0174    0.6659    1.1607 C.ar    1  UNL1       -0.0581
      7 C           1.3667    0.0688   -1.0882 C.ar    1  UNL1       -0.0581
      8 C          -3.2170    0.1391    0.7327 C.2     1  UNL1       -0.0853
      9 C           2.9699   -0.3531    1.1557 C.ar    1  UNL1       -0.0586
     10 C           2.3192   -0.9503   -1.0931 C.ar    1  UNL1       -0.0586
     11 C           3.1207   -1.1611    0.0290 C.ar    1  UNL1       -0.0504
     12 C          -3.7125   -0.9010    0.0354 C.2     1  UNL1       -0.0796
     13 C           4.1384   -2.2512    0.0241 C.3     1  UNL1       -0.0397
     14 C          -5.1689   -1.2319   -0.1269 C.3     1  UNL1       -0.0440
     15 C          -2.7820   -1.8562   -0.6650 C.3     1  UNL1       -0.0440
     16 H           0.2288    2.4769    1.0161 H       1  UNL1        0.0346
     17 H          -1.3451    0.9708   -1.1371 H       1  UNL1        0.0274
     18 H          -1.9132    2.3408   -0.2068 H       1  UNL1        0.0274
     19 H          -1.1476   -0.3653    1.0202 H       1  UNL1        0.0308
     20 H          -1.6989    1.0284    1.9064 H       1  UNL1        0.0308
     21 H           0.4640    2.6194   -2.0368 H       1  UNL1        0.0236
     22 H          -0.1309    3.8752   -0.9458 H       1  UNL1        0.0236
     23 H           1.5681    3.3880   -0.8853 H       1  UNL1        0.0236
     24 H           1.9085    1.2878    2.0440 H       1  UNL1        0.0620
     25 H           0.7517    0.2166   -1.9703 H       1  UNL1        0.0620
     26 H          -3.9334    0.8076    1.2088 H       1  UNL1        0.0571
     27 H           3.5869   -0.5089    2.0367 H       1  UNL1        0.0620
     28 H           2.4258   -1.5749   -1.9761 H       1  UNL1        0.0620
     29 H           3.6961   -3.1796    0.3988 H       1  UNL1        0.0278
     30 H           4.5230   -2.4283   -0.9861 H       1  UNL1        0.0278
     31 H           4.9973   -1.9928    0.6528 H       1  UNL1        0.0278
     32 H          -5.4521   -1.2054   -1.1840 H       1  UNL1        0.0274
     33 H          -5.8046   -0.5185    0.4079 H       1  UNL1        0.0274
     34 H          -5.3802   -2.2305    0.2686 H       1  UNL1        0.0274
     35 H          -3.0781   -1.9602   -1.7149 H       1  UNL1        0.0274
     36 H          -2.8395   -2.8442   -0.1960 H       1  UNL1        0.0274
     37 H          -1.7340   -1.5498   -0.6685 H       1  UNL1        0.0274
@<TRIPOS>BOND
     1     1     2    1
     2     1     3    1
     3     1     5    1
     4     1    16    1
     5     2     4    1
     6     2    17    1
     7     2    18    1
     8     3     6   ar
     9     3     7   ar
    10     4     8    1
    11     4    19    1
    12     4    20    1
    13     5    21    1
    14     5    22    1
    15     5    23    1
    16     6     9   ar
    17     6    24    1
    18     7    10   ar
    19     7    25    1
    20     8    12    2
    21     8    26    1
    22     9    11   ar
    23     9    27    1
    24    10    11   ar
    25    10    28    1
    26    11    13    1
    27    12    14    1
    28    12    15    1
    29    13    29    1
    30    13    30    1
    31    13    31    1
    32    14    32    1
    33    14    33    1
    34    14    34    1
    35    15    35    1
    36    15    36    1
    37    15    37    1
