@<TRIPOS>MOLECULE
7794
 29 28 0 0 0
SMALL
GASTEIGER

@<TRIPOS>ATOM
      1 O           4.8390    0.4287    0.3941 O.2     1  UNL1       -0.3010
      2 C           1.4301   -0.2017   -0.3354 C.3     1  UNL1       -0.0372
      3 C           0.0443   -0.0889    0.3358 C.3     1  UNL1       -0.0466
      4 C          -1.0458   -0.9032   -0.3680 C.3     1  UNL1       -0.0343
      5 C           2.4234    0.7191    0.3945 C.3     1  UNL1        0.0054
      6 C           1.9406   -1.6475   -0.3386 C.3     1  UNL1       -0.0620
      7 C          -2.3740   -0.7339    0.3157 C.2     1  UNL1       -0.0853
      8 C          -3.3228    0.1850    0.0541 C.2     1  UNL1       -0.0796
      9 C           3.8120    0.7276   -0.2052 C.2     1  UNL1        0.1206
     10 C          -4.6346    0.3011    0.7774 C.3     1  UNL1       -0.0440
     11 C          -3.1122    1.2138   -1.0245 C.3     1  UNL1       -0.0440
     12 H           1.3492    0.1306   -1.3785 H       1  UNL1        0.0302
     13 H           0.1188   -0.4091    1.3839 H       1  UNL1        0.0271
     14 H          -0.2513    0.9683    0.3551 H       1  UNL1        0.0271
     15 H          -1.1008   -0.6429   -1.4301 H       1  UNL1        0.0307
     16 H          -0.8053   -1.9720   -0.3378 H       1  UNL1        0.0307
     17 H           2.5133    0.4262    1.4475 H       1  UNL1        0.0341
     18 H           2.0630    1.7542    0.3724 H       1  UNL1        0.0341
     19 H           1.2955   -2.2977   -0.9368 H       1  UNL1        0.0233
     20 H           2.9417   -1.7174   -0.7760 H       1  UNL1        0.0233
     21 H           1.9872   -2.0529    0.6778 H       1  UNL1        0.0233
     22 H          -2.5664   -1.4429    1.1198 H       1  UNL1        0.0571
     23 H           3.8599    1.0500   -1.2601 H       1  UNL1        0.1026
     24 H          -4.7414   -0.4724    1.5450 H       1  UNL1        0.0274
     25 H          -4.7149    1.2752    1.2703 H       1  UNL1        0.0274
     26 H          -5.4677    0.1931    0.0755 H       1  UNL1        0.0274
     27 H          -3.3082    2.2154   -0.6252 H       1  UNL1        0.0274
     28 H          -3.8087    1.0356   -1.8506 H       1  UNL1        0.0274
     29 H          -2.1020    1.2404   -1.4382 H       1  UNL1        0.0274
@<TRIPOS>BOND
     1     1     9    2
     2     2     3    1
     3     2     5    1
     4     2     6    1
     5     2    12    1
     6     3     4    1
     7     3    13    1
     8     3    14    1
     9     4     7    1
    10     4    15    1
    11     4    16    1
    12     5     9    1
    13     5    17    1
    14     5    18    1
    15     6    19    1
    16     6    20    1
    17     6    21    1
    18     7     8    2
    19     7    22    1
    20     8    10    1
    21     8    11    1
    22     9    23    1
    23    10    24    1
    24    10    25    1
    25    10    26    1
    26    11    27    1
    27    11    28    1
    28    11    29    1
