@<TRIPOS>MOLECULE
5144
 22 23 0 0 0
SMALL
GASTEIGER

@<TRIPOS>ATOM
      1 O           2.0124   -1.6332   -0.1686 O.3     1  UNL1       -0.4526
      2 O           2.9648    0.5043    0.4070 O.3     1  UNL1       -0.4526
      3 C          -1.0519    0.3679   -0.4279 C.ar    1  UNL1       -0.0400
      4 C           1.0867   -0.6356   -0.1775 C.ar    1  UNL1        0.1665
      5 C           1.6307    0.5849    0.1514 C.ar    1  UNL1        0.1662
      6 C          -0.2535   -0.7774   -0.4729 C.ar    1  UNL1       -0.0127
      7 C          -2.5081    0.2687   -0.7391 C.3     1  UNL1       -0.0096
      8 C          -0.4963    1.6150   -0.0919 C.ar    1  UNL1       -0.0546
      9 C           0.8643    1.7311    0.2029 C.ar    1  UNL1       -0.0159
     10 C           3.2000   -0.9036    0.2019 C.3     1  UNL1        0.2332
     11 C          -3.3524   -0.0112    0.4767 C.2     1  UNL1       -0.0868
     12 C          -4.0968   -1.1110    0.6380 C.2     1  UNL1       -0.1023
     13 H          -0.6665   -1.7472   -0.7289 H       1  UNL1        0.0658
     14 H          -2.8557    1.2050   -1.1947 H       1  UNL1        0.0355
     15 H          -2.6675   -0.4985   -1.5084 H       1  UNL1        0.0355
     16 H          -1.1216    2.5039   -0.0565 H       1  UNL1        0.0622
     17 H           1.2965    2.6905    0.4631 H       1  UNL1        0.0655
     18 H           3.9469   -1.0227   -0.5915 H       1  UNL1        0.1166
     19 H           3.5998   -1.3313    1.1285 H       1  UNL1        0.1166
     20 H          -3.3637    0.7416    1.2613 H       1  UNL1        0.0570
     21 H          -4.6888   -1.2469    1.5364 H       1  UNL1        0.0532
     22 H          -4.1279   -1.8897   -0.1158 H       1  UNL1        0.0532
@<TRIPOS>BOND
     1     1     4    1
     2     1    10    1
     3     2     5    1
     4     2    10    1
     5     3     6   ar
     6     3     7    1
     7     3     8   ar
     8     4     5   ar
     9     4     6   ar
    10     5     9   ar
    11     6    13    1
    12     7    11    1
    13     7    14    1
    14     7    15    1
    15     8     9   ar
    16     8    16    1
    17     9    17    1
    18    10    18    1
    19    10    19    1
    20    11    12    2
    21    11    20    1
    22    12    21    1
    23    12    22    1
