@<TRIPOS>MOLECULE
10856614
 39 40 0 0 0
SMALL
GASTEIGER

@<TRIPOS>ATOM
      1 C           0.9766   -1.0356    0.0292 C.3     1  UNL1       -0.0253
      2 C           0.6758    0.4322   -0.4144 C.3     1  UNL1       -0.0142
      3 C          -0.1048   -1.9638   -0.5724 C.3     1  UNL1       -0.0465
      4 C          -0.7317    0.8644    0.0466 C.3     1  UNL1       -0.0395
      5 C          -1.8163   -0.0783   -0.5081 C.3     1  UNL1       -0.0198
      6 C           2.3633   -1.4243   -0.5367 C.3     1  UNL1       -0.0436
      7 C          -1.5289   -1.5516   -0.1903 C.3     1  UNL1       -0.0460
      8 C           1.8097    1.3889   -0.0641 C.2     1  UNL1       -0.0729
      9 C           0.9931   -1.2104    1.5701 C.3     1  UNL1       -0.0590
     10 C           3.4803   -0.4989   -0.0433 C.3     1  UNL1       -0.0340
     11 C           3.0699    0.9391    0.0890 C.2     1  UNL1       -0.0847
     12 C          -3.1735    0.3174   -0.0062 C.2     1  UNL1       -0.0766
     13 C           1.5114    2.8581    0.0313 C.3     1  UNL1       -0.0435
     14 C          -3.4287    0.2565    1.4664 C.3     1  UNL1       -0.0438
     15 C          -4.0962    0.7064   -0.8972 C.2     1  UNL1       -0.0994
     16 H           0.6416    0.4450   -1.5161 H       1  UNL1        0.0351
     17 H           0.0665   -3.0011   -0.2580 H       1  UNL1        0.0271
     18 H          -0.0255   -1.9587   -1.6678 H       1  UNL1        0.0271
     19 H          -0.7547    0.9176    1.1402 H       1  UNL1        0.0277
     20 H          -0.9489    1.8786   -0.3126 H       1  UNL1        0.0277
     21 H          -1.7829    0.0172   -1.6036 H       1  UNL1        0.0346
     22 H           2.3335   -1.3799   -1.6343 H       1  UNL1        0.0274
     23 H           2.6120   -2.4621   -0.2814 H       1  UNL1        0.0274
     24 H          -2.2378   -2.1903   -0.7332 H       1  UNL1        0.0271
     25 H          -1.6807   -1.7732    0.8709 H       1  UNL1        0.0271
     26 H           1.2551   -2.2415    1.8354 H       1  UNL1        0.0235
     27 H           1.7181   -0.5549    2.0615 H       1  UNL1        0.0235
     28 H           0.0243   -0.9979    2.0302 H       1  UNL1        0.0235
     29 H           4.3313   -0.5700   -0.7306 H       1  UNL1        0.0308
     30 H           3.8395   -0.8447    0.9335 H       1  UNL1        0.0308
     31 H           3.8671    1.6401    0.3236 H       1  UNL1        0.0572
     32 H           0.8467    3.0621    0.8765 H       1  UNL1        0.0274
     33 H           1.0348    3.2104   -0.8891 H       1  UNL1        0.0274
     34 H           2.4179    3.4555    0.1777 H       1  UNL1        0.0274
     35 H          -3.3304   -0.7613    1.8528 H       1  UNL1        0.0274
     36 H          -2.7537    0.9129    2.0217 H       1  UNL1        0.0274
     37 H          -4.4478    0.5837    1.7037 H       1  UNL1        0.0274
     38 H          -5.0909    1.0007   -0.5784 H       1  UNL1        0.0534
     39 H          -3.8911    0.7435   -1.9619 H       1  UNL1        0.0534
@<TRIPOS>BOND
     1     1     2    1
     2     1     3    1
     3     1     6    1
     4     1     9    1
     5     2     4    1
     6     2     8    1
     7     2    16    1
     8     3     7    1
     9     3    17    1
    10     3    18    1
    11     4     5    1
    12     4    19    1
    13     4    20    1
    14     5     7    1
    15     5    12    1
    16     5    21    1
    17     6    10    1
    18     6    22    1
    19     6    23    1
    20     7    24    1
    21     7    25    1
    22     8    11    2
    23     8    13    1
    24     9    26    1
    25     9    27    1
    26     9    28    1
    27    10    11    1
    28    10    29    1
    29    10    30    1
    30    11    31    1
    31    12    14    1
    32    12    15    2
    33    13    32    1
    34    13    33    1
    35    13    34    1
    36    14    35    1
    37    14    36    1
    38    14    37    1
    39    15    38    1
    40    15    39    1
