@<TRIPOS>MOLECULE
121719
 25 26 0 0 0
SMALL
GASTEIGER

@<TRIPOS>ATOM
      1 O           2.6612    0.7656   -0.4206 O.2     1  UNL1       -0.2924
      2 C          -1.3851   -0.0682   -0.3565 C.3     1  UNL1       -0.0247
      3 C          -0.8986    1.1191    0.5306 C.3     1  UNL1       -0.0278
      4 C          -0.4589   -0.9508    0.5444 C.3     1  UNL1       -0.0074
      5 C          -0.8280    0.0639    1.6771 C.3     1  UNL1       -0.0419
      6 C           0.4832    1.6518    0.1176 C.3     1  UNL1        0.0135
      7 C           0.9762   -0.8416    0.1443 C.2     1  UNL1       -0.0084
      8 C          -2.8684   -0.3773   -0.3439 C.3     1  UNL1       -0.0590
      9 C          -0.9331    0.0195   -1.8066 C.3     1  UNL1       -0.0590
     10 C           1.5025    0.5402   -0.0889 C.2     1  UNL1        0.1592
     11 C           1.7491   -1.9222    0.0025 C.2     1  UNL1       -0.0919
     12 H          -1.6245    1.9229    0.6896 H       1  UNL1        0.0310
     13 H          -0.8038   -1.9754    0.7178 H       1  UNL1        0.0355
     14 H          -1.7730   -0.1351    2.1944 H       1  UNL1        0.0274
     15 H          -0.0671    0.2380    2.4455 H       1  UNL1        0.0274
     16 H           0.8658    2.3079    0.9078 H       1  UNL1        0.0348
     17 H           0.4066    2.2394   -0.8033 H       1  UNL1        0.0348
     18 H          -3.0765   -1.3281   -0.8477 H       1  UNL1        0.0235
     19 H          -3.2805   -0.4576    0.6663 H       1  UNL1        0.0235
     20 H          -3.4382    0.4053   -0.8579 H       1  UNL1        0.0235
     21 H           0.1159    0.2320   -2.0086 H       1  UNL1        0.0235
     22 H          -1.1476   -0.9238   -2.3250 H       1  UNL1        0.0235
     23 H          -1.4985    0.8015   -2.3294 H       1  UNL1        0.0235
     24 H           1.3578   -2.9198    0.1736 H       1  UNL1        0.0539
     25 H           2.7914   -1.8462   -0.2882 H       1  UNL1        0.0539
@<TRIPOS>BOND
     1     1    10    2
     2     2     3    1
     3     2     4    1
     4     2     8    1
     5     2     9    1
     6     3     5    1
     7     3     6    1
     8     3    12    1
     9     4     5    1
    10     4     7    1
    11     4    13    1
    12     5    14    1
    13     5    15    1
    14     6    10    1
    15     6    16    1
    16     6    17    1
    17     7    10    1
    18     7    11    2
    19     8    18    1
    20     8    19    1
    21     8    20    1
    22     9    21    1
    23     9    22    1
    24     9    23    1
    25    11    24    1
    26    11    25    1
