@<TRIPOS>MOLECULE
7127
 27 27 0 0 0
SMALL
GASTEIGER

@<TRIPOS>ATOM
      1 O           1.8416    1.8535    0.3584 O.3     1  UNL1       -0.4914
      2 O           2.8124   -0.6959   -0.1755 O.3     1  UNL1       -0.4915
      3 C          -1.2379   -0.1090    0.5241 C.ar    1  UNL1       -0.0400
      4 C          -2.6935    0.0969    0.7752 C.3     1  UNL1       -0.0096
      5 C          -0.3638    0.9775    0.5574 C.ar    1  UNL1       -0.0128
      6 C           0.9978    0.7847    0.3230 C.ar    1  UNL1        0.1617
      7 C          -0.7507   -1.3883    0.2563 C.ar    1  UNL1       -0.0546
      8 C           1.4850   -0.4946    0.0550 C.ar    1  UNL1        0.1615
      9 C           0.6107   -1.5810    0.0215 C.ar    1  UNL1       -0.0160
     10 C          -3.4740    0.3846   -0.4812 C.2     1  UNL1       -0.0868
     11 C           2.0558    2.5510   -0.8670 C.3     1  UNL1        0.0790
     12 C           3.2284   -2.0340   -0.4417 C.3     1  UNL1        0.0790
     13 C          -4.5117   -0.3454   -0.9055 C.2     1  UNL1       -0.1023
     14 H          -3.1041   -0.7770    1.2981 H       1  UNL1        0.0355
     15 H          -2.8333    0.9368    1.4684 H       1  UNL1        0.0355
     16 H          -0.7375    1.9773    0.7650 H       1  UNL1        0.0658
     17 H          -1.4225   -2.2422    0.2265 H       1  UNL1        0.0622
     18 H           0.9175   -2.6014   -0.1803 H       1  UNL1        0.0655
     19 H          -3.1816    1.2550   -1.0639 H       1  UNL1        0.0570
     20 H           1.1159    2.9724   -1.2375 H       1  UNL1        0.0660
     21 H           2.4914    1.8851   -1.6187 H       1  UNL1        0.0660
     22 H           2.7554    3.3696   -0.6776 H       1  UNL1        0.0660
     23 H           2.7805   -2.4198   -1.3638 H       1  UNL1        0.0660
     24 H           3.0486   -2.6908    0.4162 H       1  UNL1        0.0660
     25 H           4.3115   -2.0089   -0.6010 H       1  UNL1        0.0660
     26 H          -5.0371   -0.0765   -1.8154 H       1  UNL1        0.0532
     27 H          -4.8525   -1.2174   -0.3587 H       1  UNL1        0.0532
@<TRIPOS>BOND
     1     1     6    1
     2     1    11    1
     3     2     8    1
     4     2    12    1
     5     3     4    1
     6     3     5   ar
     7     3     7   ar
     8     4    10    1
     9     4    14    1
    10     4    15    1
    11     5     6   ar
    12     5    16    1
    13     6     8   ar
    14     7     9   ar
    15     7    17    1
    16     8     9   ar
    17     9    18    1
    18    10    13    2
    19    10    19    1
    20    11    20    1
    21    11    21    1
    22    11    22    1
    23    12    23    1
    24    12    24    1
    25    12    25    1
    26    13    26    1
    27    13    27    1
