@<TRIPOS>MOLECULE
5284421
 55 54 0 0 0
SMALL
GASTEIGER

@<TRIPOS>ATOM
      1 O          -4.7764    1.0256   -0.3235 O.3     1  UNL1       -0.4679
      2 O          -4.0220   -0.7470   -1.5921 O.2     1  UNL1       -0.2509
      3 C          -0.7784   -2.7032    0.6840 C.3     1  UNL1       -0.0530
      4 C           0.6452   -2.1921    0.4527 C.3     1  UNL1       -0.0528
      5 C          -1.7914   -1.5567    0.6651 C.3     1  UNL1       -0.0526
      6 C           1.6527   -3.3460    0.4382 C.3     1  UNL1       -0.0496
      7 C          -3.2192   -2.0750    0.8626 C.3     1  UNL1       -0.0430
      8 C           3.0975   -2.8786    0.2363 C.3     1  UNL1       -0.0348
      9 C          -4.2580   -0.9543    0.8204 C.3     1  UNL1        0.0449
     10 C           1.7186    2.5568   -0.0384 C.3     1  UNL1       -0.0496
     11 C           0.5126    2.6758    0.8967 C.3     1  UNL1       -0.0530
     12 C           3.3163   -2.2054   -1.0878 C.2     1  UNL1       -0.0876
     13 C           3.0314    2.5631    0.7491 C.3     1  UNL1       -0.0348
     14 C          -0.8252    2.7439    0.1568 C.3     1  UNL1       -0.0559
     15 C           3.8058   -0.9635   -1.2209 C.2     1  UNL1       -0.0842
     16 C           4.1963   -0.0918   -0.0634 C.3     1  UNL1       -0.0165
     17 C          -4.3160   -0.2462   -0.5153 C.2     1  UNL1        0.3068
     18 C           4.2136    2.4145   -0.1639 C.2     1  UNL1       -0.0876
     19 C           4.7323    1.2316   -0.5258 C.2     1  UNL1       -0.0842
     20 C          -2.0204    2.9328    1.0779 C.3     1  UNL1       -0.0653
     21 C          -4.9155    1.8159   -1.5085 C.3     1  UNL1        0.0817
     22 H          -1.0360   -3.4319   -0.0944 H       1  UNL1        0.0265
     23 H          -0.8309   -3.2255    1.6469 H       1  UNL1        0.0265
     24 H           0.6792   -1.6489   -0.4988 H       1  UNL1        0.0265
     25 H           0.9136   -1.4793    1.2420 H       1  UNL1        0.0265
     26 H          -1.5492   -0.8382    1.4579 H       1  UNL1        0.0265
     27 H          -1.7067   -1.0223   -0.2877 H       1  UNL1        0.0265
     28 H           1.5924   -3.8929    1.3873 H       1  UNL1        0.0268
     29 H           1.3832   -4.0575   -0.3528 H       1  UNL1        0.0268
     30 H          -3.4491   -2.8174    0.0884 H       1  UNL1        0.0270
     31 H          -3.2907   -2.5875    1.8295 H       1  UNL1        0.0270
     32 H           3.7514   -3.7589    0.2730 H       1  UNL1        0.0307
     33 H           3.3875   -2.2530    1.0861 H       1  UNL1        0.0307
     34 H          -4.0219   -0.2231    1.6026 H       1  UNL1        0.0377
     35 H          -5.2540   -1.3622    1.0236 H       1  UNL1        0.0377
     36 H           1.7121    3.3893   -0.7533 H       1  UNL1        0.0268
     37 H           1.6284    1.6325   -0.6223 H       1  UNL1        0.0268
     38 H           0.4995    1.8207    1.5840 H       1  UNL1        0.0265
     39 H           0.6239    3.5764    1.5135 H       1  UNL1        0.0265
     40 H           3.0697   -2.7692   -1.9838 H       1  UNL1        0.0569
     41 H           3.0224    1.8092    1.5428 H       1  UNL1        0.0307
     42 H           3.1335    3.5225    1.2730 H       1  UNL1        0.0307
     43 H          -0.8003    3.5748   -0.5583 H       1  UNL1        0.0263
     44 H          -0.9665    1.8265   -0.4271 H       1  UNL1        0.0263
     45 H           3.9259   -0.5755   -2.2301 H       1  UNL1        0.0572
     46 H           3.3355    0.0078    0.6013 H       1  UNL1        0.0350
     47 H           4.9972   -0.5821    0.5039 H       1  UNL1        0.0350
     48 H           4.6608    3.3245   -0.5551 H       1  UNL1        0.0569
     49 H           5.5980    1.2247   -1.1839 H       1  UNL1        0.0572
     50 H          -1.9109    3.8410    1.6790 H       1  UNL1        0.0230
     51 H          -2.9406    3.0227    0.4943 H       1  UNL1        0.0230
     52 H          -2.1264    2.0812    1.7572 H       1  UNL1        0.0230
     53 H          -5.2905    2.8008   -1.2182 H       1  UNL1        0.0661
     54 H          -5.6350    1.3529   -2.1906 H       1  UNL1        0.0661
     55 H          -3.9438    1.9401   -1.9961 H       1  UNL1        0.0661
@<TRIPOS>BOND
     1     1    17    1
     2     1    21    1
     3     2    17    2
     4     3     4    1
     5     3     5    1
     6     3    22    1
     7     3    23    1
     8     4     6    1
     9     4    24    1
    10     4    25    1
    11     5     7    1
    12     5    26    1
    13     5    27    1
    14     6     8    1
    15     6    28    1
    16     6    29    1
    17     7     9    1
    18     7    30    1
    19     7    31    1
    20     8    12    1
    21     8    32    1
    22     8    33    1
    23     9    17    1
    24     9    34    1
    25     9    35    1
    26    10    11    1
    27    10    13    1
    28    10    36    1
    29    10    37    1
    30    11    14    1
    31    11    38    1
    32    11    39    1
    33    12    15    2
    34    12    40    1
    35    13    18    1
    36    13    41    1
    37    13    42    1
    38    14    20    1
    39    14    43    1
    40    14    44    1
    41    15    16    1
    42    15    45    1
    43    16    19    1
    44    16    46    1
    45    16    47    1
    46    18    19    2
    47    18    48    1
    48    19    49    1
    49    20    50    1
    50    20    51    1
    51    20    52    1
    52    21    53    1
    53    21    54    1
    54    21    55    1
