@<TRIPOS>MOLECULE
12046149
 42 43 0 0 0
SMALL
GASTEIGER

@<TRIPOS>ATOM
      1 O           1.8634   -0.9067    1.4423 O.3     1  UNL1       -0.3877
      2 C           0.9628   -0.8421    0.3187 C.3     1  UNL1        0.0754
      3 C          -0.0911    0.2762    0.5869 C.3     1  UNL1        0.0095
      4 C          -1.3243    0.1819   -0.3550 C.3     1  UNL1       -0.0298
      5 C           0.2947   -2.2435    0.2690 C.3     1  UNL1       -0.0144
      6 C          -1.9207   -1.2319   -0.3576 C.3     1  UNL1       -0.0490
      7 C          -0.8845   -2.2907   -0.7047 C.3     1  UNL1       -0.0476
      8 C           1.7826   -0.5009   -0.9417 C.3     1  UNL1       -0.0195
      9 C          -2.4285    1.1816    0.0192 C.3     1  UNL1       -0.0433
     10 C           0.5335    1.6538    0.4939 C.2     1  UNL1       -0.0789
     11 C           2.4931    0.8550   -0.8279 C.3     1  UNL1       -0.0294
     12 C           1.2725   -3.3837   -0.0435 C.3     1  UNL1       -0.0598
     13 C           1.6902    1.9222   -0.1344 C.2     1  UNL1       -0.0761
     14 C          -3.5513    1.1379   -1.0102 C.3     1  UNL1       -0.0624
     15 C          -2.9593    0.8838    1.4164 C.3     1  UNL1       -0.0624
     16 C           2.2669    3.3071   -0.1715 C.3     1  UNL1       -0.0438
     17 H          -0.3956    0.1438    1.6314 H       1  UNL1        0.0374
     18 H          -0.9939    0.4097   -1.3784 H       1  UNL1        0.0310
     19 H          -0.0954   -2.4549    1.2760 H       1  UNL1        0.0326
     20 H          -2.7287   -1.3237   -1.0899 H       1  UNL1        0.0268
     21 H          -2.3346   -1.5031    0.6183 H       1  UNL1        0.0268
     22 H          -1.3597   -3.2789   -0.6665 H       1  UNL1        0.0269
     23 H          -0.5404   -2.1504   -1.7364 H       1  UNL1        0.0269
     24 H           1.1374   -0.4920   -1.8278 H       1  UNL1        0.0296
     25 H           2.5588   -1.2526   -1.1250 H       1  UNL1        0.0296
     26 H          -2.0277    2.2012    0.0059 H       1  UNL1        0.0298
     27 H           0.0045    2.4625    0.9925 H       1  UNL1        0.0575
     28 H           2.7647    1.1895   -1.8364 H       1  UNL1        0.0311
     29 H           3.4320    0.7203   -0.2757 H       1  UNL1        0.0311
     30 H           2.1193   -3.3976    0.6487 H       1  UNL1        0.0233
     31 H           0.7657   -4.3510    0.0505 H       1  UNL1        0.0233
     32 H           1.6593   -3.3212   -1.0653 H       1  UNL1        0.0233
     33 H           2.6641   -1.3848    1.1694 H       1  UNL1        0.2102
     34 H          -4.1746    0.2424   -0.9264 H       1  UNL1        0.0232
     35 H          -4.2205    1.9939   -0.8639 H       1  UNL1        0.0232
     36 H          -3.1629    1.2019   -2.0321 H       1  UNL1        0.0232
     37 H          -3.4999   -0.0634    1.4907 H       1  UNL1        0.0232
     38 H          -3.6892    1.6578    1.6873 H       1  UNL1        0.0232
     39 H          -2.1938    0.9198    2.1936 H       1  UNL1        0.0232
     40 H           3.2589    3.3172    0.2918 H       1  UNL1        0.0274
     41 H           1.6420    4.0303    0.3630 H       1  UNL1        0.0274
     42 H           2.3626    3.6506   -1.2065 H       1  UNL1        0.0274
@<TRIPOS>BOND
     1     1     2    1
     2     1    33    1
     3     2     3    1
     4     2     5    1
     5     2     8    1
     6     3     4    1
     7     3    10    1
     8     3    17    1
     9     4     6    1
    10     4     9    1
    11     4    18    1
    12     5     7    1
    13     5    12    1
    14     5    19    1
    15     6     7    1
    16     6    20    1
    17     6    21    1
    18     7    22    1
    19     7    23    1
    20     8    11    1
    21     8    24    1
    22     8    25    1
    23     9    14    1
    24     9    15    1
    25     9    26    1
    26    10    13    2
    27    10    27    1
    28    11    13    1
    29    11    28    1
    30    11    29    1
    31    12    30    1
    32    12    31    1
    33    12    32    1
    34    13    16    1
    35    14    34    1
    36    14    35    1
    37    14    36    1
    38    15    37    1
    39    15    38    1
    40    15    39    1
    41    16    40    1
    42    16    41    1
    43    16    42    1
