@<TRIPOS>MOLECULE
91354
 39 41 0 0 0
SMALL
GASTEIGER

@<TRIPOS>ATOM
      1 C           0.9887   -0.2673   -0.5800 C.3     1  UNL1       -0.0287
      2 C           2.2767    0.1659    0.0696 C.3     1  UNL1       -0.0284
      3 C           1.4432    1.1696   -0.6833 C.3     1  UNL1       -0.0317
      4 C          -0.2211   -0.5966    0.2489 C.3     1  UNL1       -0.0284
      5 C          -1.4872    0.0195   -0.4078 C.3     1  UNL1       -0.0168
      6 C           0.7192    2.2662    0.0419 C.3     1  UNL1       -0.0457
      7 C          -0.5275   -2.1071    0.4175 C.3     1  UNL1       -0.0402
      8 C           2.2757    0.2693    1.5584 C.3     1  UNL1       -0.0593
      9 C           3.5859   -0.2929   -0.4769 C.3     1  UNL1       -0.0593
     10 C          -2.5819   -1.0146   -0.1197 C.3     1  UNL1       -0.0460
     11 C          -1.8481   -2.3327   -0.3223 C.3     1  UNL1       -0.0496
     12 C          -0.7004    2.4771   -0.4993 C.3     1  UNL1       -0.0314
     13 C          -1.7149    1.4626    0.0066 C.2     1  UNL1       -0.0732
     14 C           0.5533   -3.0958    0.0065 C.3     1  UNL1       -0.0621
     15 C          -2.7617    1.8766    0.7399 C.2     1  UNL1       -0.0992
     16 H           1.0258   -0.8254   -1.5091 H       1  UNL1        0.0312
     17 H           1.7891    1.4980   -1.6580 H       1  UNL1        0.0309
     18 H          -0.1654   -0.1955    1.2629 H       1  UNL1        0.0312
     19 H          -1.3580    0.0287   -1.5015 H       1  UNL1        0.0348
     20 H           1.2883    3.1883   -0.1355 H       1  UNL1        0.0271
     21 H           0.6680    2.1692    1.1265 H       1  UNL1        0.0271
     22 H          -0.7226   -2.2763    1.4869 H       1  UNL1        0.0301
     23 H           1.3805    0.6205    2.0679 H       1  UNL1        0.0235
     24 H           2.5005   -0.7139    1.9902 H       1  UNL1        0.0235
     25 H           3.0808    0.9439    1.8752 H       1  UNL1        0.0235
     26 H           3.8464   -1.2808   -0.0826 H       1  UNL1        0.0235
     27 H           3.5636   -0.3682   -1.5696 H       1  UNL1        0.0235
     28 H           4.3851    0.4064   -0.2096 H       1  UNL1        0.0235
     29 H          -3.4366   -0.9140   -0.7957 H       1  UNL1        0.0271
     30 H          -2.9453   -0.9546    0.9127 H       1  UNL1        0.0271
     31 H          -2.4089   -3.1803    0.0835 H       1  UNL1        0.0268
     32 H          -1.6773   -2.5139   -1.3904 H       1  UNL1        0.0268
     33 H          -0.6960    2.4567   -1.5966 H       1  UNL1        0.0310
     34 H          -1.0183    3.4896   -0.2180 H       1  UNL1        0.0310
     35 H           1.4872   -2.9003    0.5427 H       1  UNL1        0.0233
     36 H           0.2417   -4.1187    0.2441 H       1  UNL1        0.0233
     37 H           0.7551   -3.0591   -1.0685 H       1  UNL1        0.0233
     38 H          -3.5220    1.1978    1.1062 H       1  UNL1        0.0534
     39 H          -2.8884    2.9235    0.9971 H       1  UNL1        0.0534
@<TRIPOS>BOND
     1     1     2    1
     2     1     3    1
     3     1     4    1
     4     1    16    1
     5     2     3    1
     6     2     8    1
     7     2     9    1
     8     3     6    1
     9     3    17    1
    10     4     5    1
    11     4     7    1
    12     4    18    1
    13     5    10    1
    14     5    13    1
    15     5    19    1
    16     6    12    1
    17     6    20    1
    18     6    21    1
    19     7    11    1
    20     7    14    1
    21     7    22    1
    22     8    23    1
    23     8    24    1
    24     8    25    1
    25     9    26    1
    26     9    27    1
    27     9    28    1
    28    10    11    1
    29    10    29    1
    30    10    30    1
    31    11    31    1
    32    11    32    1
    33    12    13    1
    34    12    33    1
    35    12    34    1
    36    13    15    2
    37    14    35    1
    38    14    36    1
    39    14    37    1
    40    15    38    1
    41    15    39    1
