@<TRIPOS>MOLECULE
68316
 25 25 0 0 0
SMALL
GASTEIGER

@<TRIPOS>ATOM
      1 O          -2.6600    1.0829   -0.6572 O.2     1  UNL1       -0.4708
      2 C          -0.5199   -1.8557   -0.1255 C.3     1  UNL1       -0.0213
      3 C           0.9113   -1.6605    0.3914 C.3     1  UNL1       -0.0304
      4 C          -1.3569   -0.6109   -0.0526 C.ar    1  UNL1       -0.0094
      5 C           1.7173   -0.7282   -0.4714 C.2     1  UNL1       -0.0850
      6 C           2.3802    0.3821   -0.0962 C.2     1  UNL1       -0.0796
      7 C          -1.6096    0.1466    1.0954 C.ar    1  UNL1       -0.0207
      8 C          -2.0026   -0.0232   -1.0938 C.ar    1  UNL1        0.0948
      9 C           3.1701    1.2734   -1.0123 C.3     1  UNL1       -0.0440
     10 C           2.3859    0.8142    1.3462 C.3     1  UNL1       -0.0440
     11 C          -2.4158    1.1793    0.6761 C.ar    1  UNL1        0.0919
     12 H          -0.4944   -2.2292   -1.1575 H       1  UNL1        0.0317
     13 H          -1.0091   -2.6346    0.4735 H       1  UNL1        0.0317
     14 H           0.8738   -1.3477    1.4378 H       1  UNL1        0.0311
     15 H           1.4148   -2.6354    0.3823 H       1  UNL1        0.0311
     16 H           1.7642   -1.0068   -1.5236 H       1  UNL1        0.0572
     17 H          -1.2620   -0.0198    2.1049 H       1  UNL1        0.0652
     18 H          -2.0994   -0.2389   -2.1480 H       1  UNL1        0.1032
     19 H           4.2245    1.2884   -0.7187 H       1  UNL1        0.0274
     20 H           3.1168    0.9305   -2.0508 H       1  UNL1        0.0274
     21 H           2.7805    2.2959   -0.9777 H       1  UNL1        0.0274
     22 H           1.5645    1.5125    1.5350 H       1  UNL1        0.0274
     23 H           3.3240    1.3290    1.5846 H       1  UNL1        0.0274
     24 H           2.3216   -0.0168    2.0525 H       1  UNL1        0.0274
     25 H          -2.8759    2.0190    1.1761 H       1  UNL1        0.1029
@<TRIPOS>BOND
     1     1     8   ar
     2     1    11   ar
     3     2     3    1
     4     2     4    1
     5     2    12    1
     6     2    13    1
     7     3     5    1
     8     3    14    1
     9     3    15    1
    10     4     7   ar
    11     4     8   ar
    12     5     6    2
    13     5    16    1
    14     6     9    1
    15     6    10    1
    16     7    11   ar
    17     7    17    1
    18     8    18    1
    19     9    19    1
    20     9    20    1
    21     9    21    1
    22    10    22    1
    23    10    23    1
    24    10    24    1
    25    11    25    1
