@<TRIPOS>MOLECULE
108065
 71 76 0 0 0
SMALL
GASTEIGER

@<TRIPOS>ATOM
      1 O           3.6572   -0.5669   -1.0286 O.3     1  UNL1       -0.4811
      2 O          -1.5286    0.7157    0.6182 O.3     1  UNL1       -0.4808
      3 O           0.9603   -1.6613   -1.1393 O.3     1  UNL1       -0.3868
      4 O          -3.6002    2.6813    0.9919 O.3     1  UNL1       -0.3875
      5 O           2.9638    2.2219    0.9151 O.3     1  UNL1       -0.5062
      6 O          -0.1587    3.7171    4.1664 O.3     1  UNL1       -0.5063
      7 O           0.6434    3.1532   -1.8184 O.3     1  UNL1       -0.5062
      8 O           4.9196    2.9841   -3.8870 O.3     1  UNL1       -0.5065
      9 O          -4.7372   -0.1720   -3.0908 O.3     1  UNL1       -0.5032
     10 O          -6.3743   -2.7608    0.5911 O.3     1  UNL1       -0.5032
     11 O          -6.4741   -2.0856   -2.0927 O.3     1  UNL1       -0.4885
     12 O           4.3030   -6.2043    1.6990 O.3     1  UNL1       -0.5068
     13 C           1.0236    0.6558   -0.4611 C.3     1  UNL1        0.0528
     14 C           1.3942   -0.7935   -0.0847 C.3     1  UNL1        0.1074
     15 C           0.6900    1.4712    0.7794 C.ar    1  UNL1        0.0463
     16 C           2.9072   -0.9394    0.1356 C.3     1  UNL1        0.1517
     17 C           2.0854    1.2779   -1.3486 C.ar    1  UNL1        0.0461
     18 C          -0.6077    1.4706    1.2978 C.ar    1  UNL1        0.1355
     19 C          -0.9191    2.2395    2.4262 C.ar    1  UNL1        0.0387
     20 C          -3.3216    1.7004    1.9919 C.3     1  UNL1        0.1004
     21 C          -2.7377    0.4385    1.3431 C.3     1  UNL1        0.1514
     22 C          -2.3148    2.2713    2.9885 C.3     1  UNL1        0.0092
     23 C           3.3144    0.6427   -1.5738 C.ar    1  UNL1        0.1323
     24 C           1.6907    2.2151    1.4025 C.ar    1  UNL1        0.1277
     25 C           3.2810   -2.3503    0.5543 C.ar    1  UNL1       -0.0046
     26 C           0.0973    2.9752    3.0506 C.ar    1  UNL1        0.1271
     27 C           1.8302    2.5013   -1.9905 C.ar    1  UNL1        0.1276
     28 C           1.3958    2.9635    2.5399 C.ar    1  UNL1        0.0221
     29 C          -3.7374   -0.2372    0.4231 C.ar    1  UNL1        0.0023
     30 C           4.2589    1.2121   -2.4329 C.ar    1  UNL1        0.0221
     31 C           2.7810    3.0751   -2.8350 C.ar    1  UNL1        0.0218
     32 C           3.9944    2.4296   -3.0570 C.ar    1  UNL1        0.1238
     33 C           3.2991   -2.6923    1.9050 C.ar    1  UNL1       -0.0515
     34 C           3.6051   -3.2994   -0.4132 C.ar    1  UNL1       -0.0515
     35 C          -4.6083   -1.2002    0.9300 C.ar    1  UNL1       -0.0095
     36 C          -3.7832    0.1062   -0.9273 C.ar    1  UNL1       -0.0095
     37 C           3.6428   -3.9883    2.2899 C.ar    1  UNL1       -0.0198
     38 C           3.9487   -4.5956   -0.0286 C.ar    1  UNL1       -0.0198
     39 C          -4.7022   -0.5152   -1.7728 C.ar    1  UNL1        0.1625
     40 C          -5.5273   -1.8217    0.0846 C.ar    1  UNL1        0.1625
     41 C           3.9675   -4.9400    1.3230 C.ar    1  UNL1        0.1169
     42 C          -5.5745   -1.4791   -1.2668 C.ar    1  UNL1        0.2031
     43 C          -5.9474   -2.8162   -3.1979 C.3     1  UNL1        0.0791
     44 H           0.1278    0.5910   -1.0955 H       1  UNL1        0.0429
     45 H           0.8450   -1.1179    0.8075 H       1  UNL1        0.0643
     46 H           3.2368   -0.2803    0.9481 H       1  UNL1        0.0811
     47 H          -4.2664    1.4803    2.5026 H       1  UNL1        0.0637
     48 H          -2.4723   -0.2873    2.1260 H       1  UNL1        0.0811
     49 H          -2.3253    1.6685    3.9047 H       1  UNL1        0.0342
     50 H          -2.5909    3.3012    3.2432 H       1  UNL1        0.0342
     51 H           2.1777    3.5401    3.0284 H       1  UNL1        0.0691
     52 H           1.4650   -1.4384   -1.9396 H       1  UNL1        0.2100
     53 H           5.2050    0.7070   -2.6133 H       1  UNL1        0.0691
     54 H           2.5654    4.0226   -3.3228 H       1  UNL1        0.0691
     55 H           3.0455   -1.9605    2.6673 H       1  UNL1        0.0623
     56 H           3.5891   -3.0568   -1.4721 H       1  UNL1        0.0623
     57 H          -3.9866    3.4537    1.4385 H       1  UNL1        0.2100
     58 H          -4.5721   -1.4643    1.9841 H       1  UNL1        0.0659
     59 H          -3.1131    0.8622   -1.3291 H       1  UNL1        0.0659
     60 H           3.5170    2.7921    1.4759 H       1  UNL1        0.2921
     61 H           0.6607    4.1540    4.4552 H       1  UNL1        0.2921
     62 H          -0.0185    2.5850   -1.3981 H       1  UNL1        0.2921
     63 H           3.6551   -4.2507    3.3442 H       1  UNL1        0.0654
     64 H           4.1978   -5.3282   -0.7915 H       1  UNL1        0.0654
     65 H           4.5707    3.8239   -4.2321 H       1  UNL1        0.2921
     66 H          -4.0618    0.5069   -3.2606 H       1  UNL1        0.2923
     67 H          -6.1979   -2.8674    1.5417 H       1  UNL1        0.2923
     68 H           4.4972   -6.7285    0.9030 H       1  UNL1        0.2921
     69 H          -5.9440   -2.1897   -4.0943 H       1  UNL1        0.0660
     70 H          -6.6082   -3.6682   -3.3839 H       1  UNL1        0.0660
     71 H          -4.9416   -3.2020   -2.9978 H       1  UNL1        0.0660
@<TRIPOS>BOND
     1     1    16    1
     2     1    23    1
     3     2    18    1
     4     2    21    1
     5     3    14    1
     6     3    52    1
     7     4    20    1
     8     4    57    1
     9     5    24    1
    10     5    60    1
    11     6    26    1
    12     6    61    1
    13     7    27    1
    14     7    62    1
    15     8    32    1
    16     8    65    1
    17     9    39    1
    18     9    66    1
    19    10    40    1
    20    10    67    1
    21    11    42    1
    22    11    43    1
    23    12    41    1
    24    12    68    1
    25    13    14    1
    26    13    15    1
    27    13    17    1
    28    13    44    1
    29    14    16    1
    30    14    45    1
    31    15    18   ar
    32    15    24   ar
    33    16    25    1
    34    16    46    1
    35    17    23   ar
    36    17    27   ar
    37    18    19   ar
    38    19    22    1
    39    19    26   ar
    40    20    21    1
    41    20    22    1
    42    20    47    1
    43    21    29    1
    44    21    48    1
    45    22    49    1
    46    22    50    1
    47    23    30   ar
    48    24    28   ar
    49    25    33   ar
    50    25    34   ar
    51    26    28   ar
    52    27    31   ar
    53    28    51    1
    54    29    35   ar
    55    29    36   ar
    56    30    32   ar
    57    30    53    1
    58    31    32   ar
    59    31    54    1
    60    33    37   ar
    61    33    55    1
    62    34    38   ar
    63    34    56    1
    64    35    40   ar
    65    35    58    1
    66    36    39   ar
    67    36    59    1
    68    37    41   ar
    69    37    63    1
    70    38    41   ar
    71    38    64    1
    72    39    42   ar
    73    40    42   ar
    74    43    69    1
    75    43    70    1
    76    43    71    1
