@<TRIPOS>MOLECULE
6249
 43 45 0 0 0
SMALL
GASTEIGER

@<TRIPOS>ATOM
      1 S          -0.5402    0.6609    1.0826 S.3     1  UNL1       -0.1273
      2 O          -2.1304   -2.1944   -1.8722 O.2     1  UNL1       -0.2734
      3 O          -4.7937    1.6026   -0.7951 O.3     1  UNL1       -0.4793
      4 OXT        -4.9959   -0.5119    0.0320 O.2     1  UNL1       -0.2489
      5 O           1.8502   -2.0152    1.6262 O.2     1  UNL1       -0.2737
      6 N          -2.3674   -0.8786    0.0727 N.am    1  UNL1       -0.2708
      7 N           0.6507   -1.7828   -0.3445 N.am    1  UNL1       -0.3002
      8 N           4.1890   -2.1792    0.1652 N.3     1  UNL1       -0.3163
      9 C          -1.3242   -0.9926    1.0963 C.3     1  UNL1        0.1005
     10 C          -2.1535    1.4644    0.6124 C.3     1  UNL1        0.0417
     11 CA         -2.8079    0.4391   -0.3384 C.3     1  UNL1        0.1379
     12 CA         -0.6744   -2.0731    0.2212 C.3     1  UNL1        0.1277
     13 C          -1.8408   -1.8263   -0.7564 C.2     1  UNL1        0.2402
     14 C          -2.9419    1.7308    1.9019 C.3     1  UNL1       -0.0484
     15 C          -1.8616    2.7834   -0.1053 C.3     1  UNL1       -0.0484
     16 C          -4.3033    0.4262   -0.3336 C.2     1  UNL1        0.3269
     17 C           1.8202   -1.7785    0.4196 C.2     1  UNL1        0.2350
     18 CA          3.0615   -1.4271   -0.3931 C.3     1  UNL1        0.1079
     19 C           3.3056    0.0677   -0.3871 C.ar    1  UNL1       -0.0219
     20 C           2.7331    0.8483   -1.3755 C.ar    1  UNL1       -0.0566
     21 C           4.0955    0.6182    0.6063 C.ar    1  UNL1       -0.0566
     22 C           2.9578    2.2249   -1.3702 C.ar    1  UNL1       -0.0614
     23 C           4.3202    1.9949    0.6116 C.ar    1  UNL1       -0.0614
     24 C           3.7513    2.7983   -0.3766 C.ar    1  UNL1       -0.0617
     25 H          -1.7123   -1.3276    2.0625 H       1  UNL1        0.0640
     26 HA         -2.4777    0.5810   -1.3764 H       1  UNL1        0.0631
     27 HA         -0.7093   -3.0788    0.6571 H       1  UNL1        0.0622
     28 H          -3.2038    0.8051    2.4266 H       1  UNL1        0.0244
     29 H          -2.3722    2.3598    2.5965 H       1  UNL1        0.0244
     30 H          -3.8769    2.2624    1.6928 H       1  UNL1        0.0244
     31 H          -1.3127    3.4790    0.5404 H       1  UNL1        0.0244
     32 H          -1.2657    2.6302   -1.0127 H       1  UNL1        0.0244
     33 H          -2.7881    3.2850   -0.4044 H       1  UNL1        0.0244
     34 H           0.7320   -1.5698   -1.3359 H       1  UNL1        0.1496
     35 HA          2.9294   -1.7709   -1.4268 H       1  UNL1        0.0605
     36 H          -5.7745    1.6146   -0.7988 H       1  UNL1        0.2951
     37 H1          5.0188   -2.0218   -0.4065 H       1  UNL1        0.1192
     38 H2          3.9951   -3.1784    0.1028 H       1  UNL1        0.1192
     39 H           2.1131    0.4121   -2.1531 H       1  UNL1        0.0621
     40 H           4.5368    0.0230    1.3997 H       1  UNL1        0.0621
     41 H           2.5138    2.8506   -2.1389 H       1  UNL1        0.0618
     42 H           4.9343    2.4423    1.3877 H       1  UNL1        0.0618
     43 H           3.9248    3.8704   -0.3715 H       1  UNL1        0.0618
@<TRIPOS>BOND
     1     1     9    1
     2     1    10    1
     3     2    13    2
     4     3    16    1
     5     3    36    1
     6     4    16    2
     7     5    17    2
     8     6     9    1
     9     6    11    1
    10     6    13   am
    11     7    12    1
    12     7    17   am
    13     7    34    1
    14     8    18    1
    15     8    37    1
    16     8    38    1
    17     9    12    1
    18     9    25    1
    19    10    11    1
    20    10    14    1
    21    10    15    1
    22    11    16    1
    23    11    26    1
    24    12    13    1
    25    12    27    1
    26    14    28    1
    27    14    29    1
    28    14    30    1
    29    15    31    1
    30    15    32    1
    31    15    33    1
    32    17    18    1
    33    18    19    1
    34    18    35    1
    35    19    20   ar
    36    19    21   ar
    37    20    22   ar
    38    20    39    1
    39    21    23   ar
    40    21    40    1
    41    22    24   ar
    42    22    41    1
    43    23    24   ar
    44    23    42    1
    45    24    43    1
