@<TRIPOS>MOLECULE
5742673
 47 49 0 0 0
SMALL
GASTEIGER

@<TRIPOS>ATOM
      1 S          -0.9192    0.7594   -1.9256 S.3     1  UNL1       -0.1310
      2 S           3.6489   -3.3993    0.5783 S.2     1  UNL1       -0.0604
      3 O          -0.0414    0.9728    2.6348 O.2     1  UNL1       -0.2731
      4 O          -5.4499   -0.1403   -1.0739 O.3     1  UNL1       -0.4603
      5 O          -3.1799    0.5502    2.8462 O.3     1  UNL1       -0.4763
      6 OXT        -2.9000   -1.6306    2.2171 O.2     1  UNL1       -0.2437
      7 O           2.9402    1.6413    1.6721 O.2     1  UNL1       -0.2683
      8 O           4.3627    2.5141   -0.9484 O.2     1  UNL1       -0.3964
      9 O          -6.9616   -1.8739   -0.8589 O.2     1  UNL1       -0.2512
     10 N          -1.3678    0.9313    0.6856 N.am    1  UNL1       -0.2489
     11 N           1.5479    1.3204   -0.1903 N.am    1  UNL1       -0.2963
     12 N           4.6423    1.1405   -0.9332 N.2     1  UNL1       -0.0779
     13 N           4.9796   -1.6156   -0.7373 N.ar    1  UNL1       -0.2233
     14 N           5.7600   -3.8344   -0.9792 N.pl3   1  UNL1       -0.3375
     15 C          -0.9867    1.7752   -0.4323 C.3     1  UNL1        0.1042
     16 CA          0.3494    1.9920    0.3114 C.3     1  UNL1        0.1286
     17 C          -0.3323    1.2460    1.4937 C.2     1  UNL1        0.2440
     18 CA         -2.4744    0.1444    0.6943 C.2     1  UNL1        0.1252
     19 C          -3.1498   -0.1389   -0.4449 C.2     1  UNL1        0.0056
     20 C          -2.6839    0.3043   -1.8300 C.3     1  UNL1        0.0220
     21 C          -4.4307   -0.9359   -0.5064 C.3     1  UNL1        0.1166
     22 C          -2.8681   -0.4387    1.9856 C.2     1  UNL1        0.3515
     23 C           2.7135    1.2201    0.5494 C.2     1  UNL1        0.2684
     24 C           3.8112    0.4876   -0.1780 C.2     1  UNL1        0.1897
     25 C           3.9655   -0.9660   -0.0609 C.ar    1  UNL1        0.1067
     26 C          -6.6815   -0.7317   -1.1965 C.2     1  UNL1        0.3043
     27 C           3.1423   -1.7656    0.7038 C.ar    1  UNL1        0.0067
     28 C          -7.6579    0.2254   -1.8102 C.3     1  UNL1        0.0332
     29 C           4.9095   -2.9018   -0.4744 C.ar    1  UNL1        0.1562
     30 C           5.3119    3.1478   -1.7919 C.3     1  UNL1        0.1072
     31 H          -1.6017    2.6793   -0.5135 H       1  UNL1        0.0644
     32 HA          0.5500    3.0469    0.5335 H       1  UNL1        0.0622
     33 H          -3.2845    1.1572   -2.1644 H       1  UNL1        0.0424
     34 H          -2.8280   -0.5094   -2.5488 H       1  UNL1        0.0424
     35 H           1.5406    0.9084   -1.1204 H       1  UNL1        0.1499
     36 H          -4.2695   -1.8301   -1.1213 H       1  UNL1        0.0746
     37 H          -4.7589   -1.2669    0.4835 H       1  UNL1        0.0746
     38 H          -3.4493    0.2047    3.7239 H       1  UNL1        0.2954
     39 H           2.2928   -1.4918    1.3138 H       1  UNL1        0.0716
     40 H          -7.7672    1.1038   -1.1693 H       1  UNL1        0.0342
     41 H          -8.6329   -0.2613   -1.9051 H       1  UNL1        0.0342
     42 H          -7.3147    0.5157   -2.8064 H       1  UNL1        0.0342
     43 H           5.0995    4.2200   -1.8082 H       1  UNL1        0.0687
     44 H           5.2343    2.7586   -2.8119 H       1  UNL1        0.0687
     45 H           6.3249    2.9961   -1.4065 H       1  UNL1        0.0687
     46 H           5.6707   -4.8189   -0.7502 H       1  UNL1        0.1442
     47 H           6.5185   -3.5831   -1.6045 H       1  UNL1        0.1442
@<TRIPOS>BOND
     1     1    15    1
     2     1    20    1
     3     2    27   ar
     4     2    29   ar
     5     3    17    2
     6     4    21    1
     7     4    26    1
     8     5    22    1
     9     5    38    1
    10     6    22    2
    11     7    23    2
    12     8    12    1
    13     8    30    1
    14     9    26    2
    15    10    15    1
    16    10    17   am
    17    10    18    1
    18    11    16    1
    19    11    23   am
    20    11    35    1
    21    12    24    2
    22    13    25   ar
    23    13    29   ar
    24    14    29    1
    25    14    46    1
    26    14    47    1
    27    15    16    1
    28    15    31    1
    29    16    17    1
    30    16    32    1
    31    18    19    2
    32    18    22    1
    33    19    20    1
    34    19    21    1
    35    20    33    1
    36    20    34    1
    37    21    36    1
    38    21    37    1
    39    23    24    1
    40    24    25    1
    41    25    27   ar
    42    26    28    1
    43    27    39    1
    44    28    40    1
    45    28    41    1
    46    28    42    1
    47    30    43    1
    48    30    44    1
    49    30    45    1
