@<TRIPOS>MOLECULE
44144393
 179 179 0 0 0
SMALL
GASTEIGER

@<TRIPOS>ATOM
      1 O          -3.1246    6.1857   -0.8733 O.2     1  UNL1       -0.2738
      2 O          -2.5361    3.7546    4.6410 O.2     1  UNL1       -0.2738
      3 O          -3.4092    8.1613   -5.1054 O.2     1  UNL1       -0.2738
      4 O           0.0749    4.7909   -2.4242 O.2     1  UNL1       -0.2738
      5 O          -4.3756    2.9631   -0.2228 O.2     1  UNL1       -0.2738
      6 O           1.9922    9.1898    1.3179 O.2     1  UNL1       -0.2738
      7 O          -2.0393    2.3294    2.3538 O.3     1  UNL1       -0.3897
      8 O          -3.6235    8.2191    3.0229 O.2     1  UNL1       -0.2738
      9 O          -0.3744   15.7346    3.5082 O.3     1  UNL1       -0.3897
     10 O           1.5377    5.1845    3.8845 O.2     1  UNL1       -0.2737
     11 O          -1.0654   12.7336    0.6829 O.2     1  UNL1       -0.2737
     12 O           2.8606   15.2664   -0.0406 O.2     1  UNL1       -0.2738
     13 O           2.9038   18.6699   -3.2302 O.2     1  UNL1       -0.2758
     14 N          -2.3522    5.8711    0.9696 N.am    1  UNL1       -0.3025
     15 N          -1.5789    8.1611   -3.6506 N.am    1  UNL1       -0.3025
     16 N          -4.1484    2.8247    3.3912 N.am    1  UNL1       -0.3024
     17 N          -1.8407    6.0857   -2.6811 N.am    1  UNL1       -0.3024
     18 N           0.4913    8.5159   -0.3142 N.am    1  UNL1       -0.3024
     19 N          -4.8957    4.9824    0.5929 N.am    1  UNL1       -0.3024
     20 N           1.1044    4.6199    1.7329 N.am    1  UNL1       -0.3136
     21 N           1.1621   12.2413    0.5662 N.am    1  UNL1       -0.3024
     22 N          -1.9641    6.3797    3.1854 N.am    1  UNL1       -0.3003
     23 N           0.8216   15.7175    0.9145 N.am    1  UNL1       -0.3003
     24 N           3.3073   18.3645   -0.9736 N.am    1  UNL1       -0.3040
     25 N          -5.3519   10.4415   -1.5936 N.3     1  UNL1       -0.3299
     26 N          -8.6628    2.2782    2.0490 N.3     1  UNL1       -0.3299
     27 N          -7.3754    8.5927   -0.0080 N.3     1  UNL1       -0.3299
     28 N           4.0002   11.7368   -1.1080 N.3     1  UNL1       -0.3299
     29 N          -1.4896   17.5885   -2.2429 N.3     1  UNL1       -0.3299
     30 C          -1.1729    8.0107   -1.9225 C.3     1  UNL1        0.0996
     31 C          -3.2672    4.9054    2.4804 C.3     1  UNL1        0.0996
     32 C           0.4240    8.5758   -2.7834 C.3     1  UNL1       -0.0236
     33 C          -4.4954    5.3707    3.9835 C.3     1  UNL1       -0.0236
     34 C           1.3355    8.8607   -4.2150 C.3     1  UNL1       -0.0446
     35 C          -5.0449    4.5775    5.5236 C.3     1  UNL1       -0.0446
     36 C          -2.2042    6.9436   -0.4105 C.2     1  UNL1        0.2340
     37 C          -3.2772    7.2746   -2.8547 C.3     1  UNL1        0.1006
     38 C          -3.2043    3.7943    3.6122 C.2     1  UNL1        0.2340
     39 C          -4.9700    2.7140    2.1790 C.3     1  UNL1        0.1006
     40 C          -2.8148    7.8023   -4.1178 C.2     1  UNL1        0.2340
     41 C           0.5296    6.8833   -0.7710 C.3     1  UNL1        0.1008
     42 C           2.4969    7.8740   -4.3808 C.3     1  UNL1       -0.0626
     43 C           0.9942    9.4907   -5.6014 C.3     1  UNL1       -0.0626
     44 C          -3.4200    8.9064   -2.0222 C.3     1  UNL1       -0.0136
     45 C          -5.7999    5.6749    6.3477 C.3     1  UNL1       -0.0626
     46 C          -6.0314    3.3672    5.7621 C.3     1  UNL1       -0.0626
     47 C           0.3825    6.4343    0.6144 C.3     1  UNL1       -0.0103
     48 C          -6.3819    2.6632    2.6706 C.3     1  UNL1       -0.0136
     49 C          -0.4550    5.8590   -2.0623 C.2     1  UNL1        0.2340
     50 C          -4.8473    6.2237    1.5789 C.3     1  UNL1        0.1006
     51 C           0.9449   10.9721   -0.1602 C.3     1  UNL1        0.1006
     52 C          -4.8046    3.5875    0.7612 C.2     1  UNL1        0.2340
     53 C           0.2411    4.9868    0.6710 C.3     1  UNL1        0.0138
     54 C           7.9734   17.5759   -3.0848 C.3     1  UNL1       -0.0441
     55 C           6.6749   18.3969   -3.3095 C.3     1  UNL1       -0.0500
     56 C          -0.8408    4.8997    3.2569 C.3     1  UNL1        0.1252
     57 C          -4.0681   10.3024   -2.2060 C.3     1  UNL1       -0.0048
     58 C           1.2322    9.4609    0.4027 C.2     1  UNL1        0.2340
     59 C           6.2666   19.4398   -2.2514 C.3     1  UNL1       -0.0446
     60 C          -6.1498    7.0671    1.4623 C.3     1  UNL1       -0.0136
     61 C           0.4946   14.3941    1.6520 C.3     1  UNL1        0.1252
     62 C           1.6980   11.1405   -1.4889 C.3     1  UNL1       -0.0136
     63 C          -7.2724    2.1668    1.5613 C.3     1  UNL1       -0.0048
     64 C          -3.3868    7.0889    2.5567 C.2     1  UNL1        0.2341
     65 C           8.1242   16.9302   -1.6915 C.3     1  UNL1       -0.0533
     66 C          -0.8992    3.1506    2.5855 C.3     1  UNL1        0.0792
     67 C           1.9837   17.6316   -0.4796 C.3     1  UNL1        0.1005
     68 C           0.7016    4.9980    3.0093 C.2     1  UNL1        0.2359
     69 C           4.8017   19.9075   -2.4138 C.3     1  UNL1        0.0240
     70 C           0.1004   13.0687    0.8967 C.2     1  UNL1        0.2365
     71 C          -0.7259   14.6522    2.6303 C.3     1  UNL1        0.0792
     72 C           8.1236   16.5540   -4.2330 C.3     1  UNL1       -0.0624
     73 C           0.8610   17.7640   -1.5398 C.3     1  UNL1       -0.0136
     74 C          -6.2326    7.7073    0.1111 C.3     1  UNL1       -0.0048
     75 C           1.9636   16.0830    0.1618 C.2     1  UNL1        0.2340
     76 C           3.1234   10.6498   -1.4838 C.3     1  UNL1       -0.0048
     77 C           3.6040   18.8929   -2.2408 C.2     1  UNL1        0.2136
     78 C           6.9599   16.1040   -1.1662 C.3     1  UNL1       -0.0650
     79 C           0.0913    2.1328    3.1957 C.3     1  UNL1       -0.0367
     80 C          -1.2154   13.4536    3.4785 C.3     1  UNL1       -0.0367
     81 C          -0.5506   17.2988   -1.1619 C.3     1  UNL1       -0.0048
     82 H          -1.2979    9.0048   -1.5013 H       1  UNL1        0.0594
     83 H          -3.2525    4.0657    1.8332 H       1  UNL1        0.0594
     84 H          -0.0050    9.5945   -2.8775 H       1  UNL1        0.0290
     85 H           1.2775    8.5127   -2.1425 H       1  UNL1        0.0290
     86 H          -4.0015    6.2123    4.4889 H       1  UNL1        0.0290
     87 H          -5.5059    5.7532    3.7711 H       1  UNL1        0.0290
     88 H           1.8970    9.7468   -3.8686 H       1  UNL1        0.0296
     89 H          -4.1506    4.3423    6.1058 H       1  UNL1        0.0296
     90 H          -2.6161    5.1209    0.3025 H       1  UNL1        0.1495
     91 H          -4.2063    6.6768   -2.8569 H       1  UNL1        0.0595
     92 H          -1.1286    8.8310   -4.2672 H       1  UNL1        0.1495
     93 H          -4.6765    1.6990    1.8631 H       1  UNL1        0.0595
     94 H           1.5751    6.7006   -1.0653 H       1  UNL1        0.0595
     95 H           2.1679    6.9605   -4.8768 H       1  UNL1        0.0232
     96 H           3.3127    8.3105   -4.9764 H       1  UNL1        0.0232
     97 H           2.9355    7.6396   -3.4072 H       1  UNL1        0.0232
     98 H           0.5066   10.4715   -5.5364 H       1  UNL1        0.0232
     99 H           1.9449    9.7295   -6.1311 H       1  UNL1        0.0232
    100 H           0.4556    8.8355   -6.2860 H       1  UNL1        0.0232
    101 H          -4.0343    2.0526    4.0424 H       1  UNL1        0.1495
    102 H          -3.2621    8.8283   -0.9390 H       1  UNL1        0.0300
    103 H          -2.5709    9.4455   -2.4597 H       1  UNL1        0.0300
    104 H          -6.7806    5.8959    5.9061 H       1  UNL1        0.0232
    105 H          -5.9971    5.3373    7.3775 H       1  UNL1        0.0232
    106 H          -5.2199    6.5925    6.4228 H       1  UNL1        0.0232
    107 H          -5.6465    2.3748    5.5229 H       1  UNL1        0.0232
    108 H          -6.2342    3.2755    6.8522 H       1  UNL1        0.0232
    109 H          -7.0377    3.5032    5.3430 H       1  UNL1        0.0232
    110 H           1.2574    6.7762    1.1794 H       1  UNL1        0.0303
    111 H          -0.4156    6.9723    1.1377 H       1  UNL1        0.0303
    112 H          -1.9621    5.3897   -3.4198 H       1  UNL1        0.1495
    113 H          -6.4311    1.9518    3.5101 H       1  UNL1        0.0300
    114 H          -6.6754    3.6430    3.0554 H       1  UNL1        0.0300
    115 H          -5.3388    5.5614    2.2406 H       1  UNL1        0.0595
    116 H          -0.1288   10.9441   -0.3977 H       1  UNL1        0.0595
    117 H          -0.7618    4.7927    0.9580 H       1  UNL1        0.0463
    118 H           0.3459    4.3643   -0.2123 H       1  UNL1        0.0463
    119 H           8.8333   18.2539   -3.1830 H       1  UNL1        0.0298
    120 H          -0.4357    8.7898   -0.0491 H       1  UNL1        0.1495
    121 H           5.8429   17.7011   -3.4436 H       1  UNL1        0.0268
    122 H           6.7941   18.9241   -4.2683 H       1  UNL1        0.0268
    123 H          -0.8097    4.8077    4.3536 H       1  UNL1        0.0621
    124 H          -3.4093   11.0139   -1.6449 H       1  UNL1        0.0423
    125 H          -4.0138   10.6974   -3.2276 H       1  UNL1        0.0423
    126 H          -4.6172    5.2343   -0.3542 H       1  UNL1        0.1495
    127 H           6.9273   20.3151   -2.3797 H       1  UNL1        0.0270
    128 H           6.4197   19.0899   -1.2301 H       1  UNL1        0.0270
    129 H          -7.0321    6.4016    1.5625 H       1  UNL1        0.0300
    130 H          -6.2450    7.7802    2.2918 H       1  UNL1        0.0300
    131 H           1.3826   14.1766    2.2573 H       1  UNL1        0.0621
    132 H           1.1558   10.5808   -2.2019 H       1  UNL1        0.0300
    133 H           1.5711   12.1486   -1.9068 H       1  UNL1        0.0300
    134 H          -7.1681    2.8151    0.6817 H       1  UNL1        0.0423
    135 H          -6.9491    1.1499    1.2833 H       1  UNL1        0.0423
    136 H           9.0247   16.3011   -1.6764 H       1  UNL1        0.0265
    137 H           8.3169   17.7320   -0.9690 H       1  UNL1        0.0265
    138 H           2.0963    4.6006    1.5447 H       1  UNL1        0.1487
    139 H           1.9675   12.7859    0.2624 H       1  UNL1        0.1495
    140 H          -0.5741    3.1727    1.5593 H       1  UNL1        0.0614
    141 H          -1.7759    6.9008    4.0356 H       1  UNL1        0.1496
    142 H           1.7076   18.2677    0.3763 H       1  UNL1        0.0595
    143 H           4.7203   20.3281   -3.4334 H       1  UNL1        0.0358
    144 H           4.6232   20.7724   -1.7603 H       1  UNL1        0.0358
    145 H          -1.5876   15.0072    2.0497 H       1  UNL1        0.0614
    146 H           8.4113   17.0722   -5.1573 H       1  UNL1        0.0232
    147 H           8.9001   15.8077   -4.0330 H       1  UNL1        0.0232
    148 H           7.1884   16.0225   -4.4403 H       1  UNL1        0.0232
    149 H           0.3608   16.4997    1.3721 H       1  UNL1        0.1496
    150 H           0.7920   18.8213   -1.8315 H       1  UNL1        0.0300
    151 H           1.1657   17.1925   -2.4231 H       1  UNL1        0.0300
    152 H          -5.3043    8.2595   -0.0205 H       1  UNL1        0.0423
    153 H          -6.2990    6.9362   -0.6621 H       1  UNL1        0.0423
    154 H           3.2893    9.7920   -0.8256 H       1  UNL1        0.0423
    155 H           3.3969   10.2966   -2.4803 H       1  UNL1        0.0423
    156 H           3.9608   18.6251   -0.2467 H       1  UNL1        0.1494
    157 H           6.8139   15.1873   -1.7437 H       1  UNL1        0.0230
    158 H           7.1681   15.8111   -0.1293 H       1  UNL1        0.0230
    159 H           6.0256   16.6703   -1.1569 H       1  UNL1        0.0230
    160 H          -5.2317   10.7583   -0.6251 H       1  UNL1        0.1182
    161 H          -5.7683    9.5245   -1.5153 H       1  UNL1        0.1182
    162 H          -0.0048    1.1851    2.6364 H       1  UNL1        0.0255
    163 H           1.1383    2.4200    3.0966 H       1  UNL1        0.0255
    164 H          -0.1409    1.8837    4.2327 H       1  UNL1        0.0255
    165 H          -1.4667   13.7359    4.5071 H       1  UNL1        0.0255
    166 H          -2.1291   13.0228    3.0431 H       1  UNL1        0.0255
    167 H          -0.4840   12.6399    3.5263 H       1  UNL1        0.0255
    168 H          -9.2616    1.7400    1.4118 H       1  UNL1        0.1182
    169 H          -8.6831    1.6736    2.9172 H       1  UNL1        0.1182
    170 H          -0.5817   16.2160   -1.0177 H       1  UNL1        0.0423
    171 H          -0.8908   17.7801   -0.2382 H       1  UNL1        0.0423
    172 H          -2.0205    1.9656    1.4506 H       1  UNL1        0.2099
    173 H          -7.5341    8.8447   -0.9852 H       1  UNL1        0.1182
    174 H          -8.2371    8.1301    0.2885 H       1  UNL1        0.1182
    175 H           3.9472   11.8939   -0.1040 H       1  UNL1        0.1182
    176 H           3.6963   12.6003   -1.5621 H       1  UNL1        0.1182
    177 H           0.4113   15.4576    4.0121 H       1  UNL1        0.2099
    178 H          -2.3401   18.0143   -1.8787 H       1  UNL1        0.1182
    179 H          -1.0894   18.2500   -2.9079 H       1  UNL1        0.1182
@<TRIPOS>BOND
     1     1    36    2
     2     2    38    2
     3     3    40    2
     4     4    49    2
     5     5    52    2
     6     6    58    2
     7     7   172    1
     8     8    64    2
     9     9   177    1
    10    10    68    2
    11    11    70    2
    12    12    75    2
    13    13    77    2
    14    14    31    1
    15    14    36   am
    16    14    90    1
    17    15    30    1
    18    15    40   am
    19    15    92    1
    20    16    38   am
    21    16    39    1
    22    16   101    1
    23    17    37    1
    24    17    49   am
    25    17   112    1
    26    41    18    1
    27    18    58   am
    28    18   120    1
    29    19    50    1
    30    19    52   am
    31    19   126    1
    32    20    53    1
    33    20    68   am
    34    20   138    1
    35    51    21    1
    36    21    70   am
    37    21   139    1
    38    22    56    1
    39    22    64   am
    40    22   141    1
    41    61    23    1
    42    23    75   am
    43    23   149    1
    44    67    24    1
    45    24    77   am
    46    24   156    1
    47    25    57    1
    48    25   160    1
    49    25   161    1
    50    26    63    1
    51    26   168    1
    52    26   169    1
    53    27    74    1
    54    27   173    1
    55    27   174    1
    56    28    76    1
    57    28   175    1
    58    28   176    1
    59    29    81    1
    60    29   178    1
    61    29   179    1
    62    30    36    1
    63    31    38    1
    64    32    34    1
    65    32    84    1
    66    32    85    1
    67    33    35    1
    68    33    86    1
    69    33    87    1
    70    34    42    1
    71    34    43    1
    72    34    88    1
    73    35    45    1
    74    35    46    1
    75    35    89    1
    76    37    40    1
    77    37    44    1
    78    37    91    1
    79    39    48    1
    80    39    52    1
    81    39    93    1
    82    41    47    1
    83    41    49    1
    84    41    94    1
    85    42    95    1
    86    42    96    1
    87    42    97    1
    88    43    98    1
    89    43    99    1
    90    43   100    1
    91    44    57    1
    92    44   102    1
    93    44   103    1
    94    45   104    1
    95    45   105    1
    96    45   106    1
    97    46   107    1
    98    46   108    1
    99    46   109    1
   100    47    53    1
   101    47   110    1
   102    47   111    1
   103    48    63    1
   104    48   113    1
   105    48   114    1
   106    50    64    1
   107    51    58    1
   108    51    62    1
   109    51   116    1
   110    53   117    1
   111    53   118    1
   112    54    55    1
   113    54    65    1
   114    54    72    1
   115    54   119    1
   116    55    59    1
   117    55   121    1
   118    55   122    1
   119    56    68    1
   120    56   123    1
   121    57   124    1
   122    57   125    1
   123    59    69    1
   124    59   127    1
   125    59   128    1
   126    60    74    1
   127    60   129    1
   128    60   130    1
   129    61    70    1
   130    61   131    1
   131    62    76    1
   132    62   132    1
   133    62   133    1
   134    63   134    1
   135    63   135    1
   136    65    78    1
   137    65   136    1
   138    65   137    1
   139    66    79    1
   140    66   140    1
   141    67    73    1
   142    67    75    1
   143    67   142    1
   144    69    77    1
   145    69   143    1
   146    69   144    1
   147    71    80    1
   148    71   145    1
   149    72   146    1
   150    72   147    1
   151    72   148    1
   152    73    81    1
   153    73   150    1
   154    73   151    1
   155    74   152    1
   156    74   153    1
   157    76   154    1
   158    76   155    1
   159    78   157    1
   160    78   158    1
   161    78   159    1
   162    79   162    1
   163    79   163    1
   164    79   164    1
   165    80   165    1
   166    80   166    1
   167    80   167    1
   168    81   170    1
   169    81   171    1
   170    30    82    1
   171    30    32    1
   172    31    83    1
   173    31    33    1
   174    50   115    1
   175    50    60    1
   176    66    56    1
   177    66     7    1
   178    71    61    1
   179    71     9    1
