@<TRIPOS>MOLECULE
73303
 51 53 0 0 0
SMALL
GASTEIGER

@<TRIPOS>ATOM
      1 S          -0.3641    0.4060    1.3163 S.3     1  UNL1       -0.1224
      2 S          -6.8814    0.2838    0.2905 S.O2    1  UNL1        0.0921
      3 O           4.9614    1.9382    0.2883 O.2     1  UNL1       -0.2748
      4 O           5.7501   -1.0165   -1.6830 O.3     1  UNL1       -0.3912
      5 O           2.2584    2.9412   -1.2889 O.3     1  UNL1       -0.4762
      6 O           0.9911    3.1980    0.5974 O.2     1  UNL1       -0.2437
      7 O          -7.9319   -0.2274    1.1506 O.2     1  UNL1       -0.1415
      8 O          -6.2219    1.5381    0.5996 O.2     1  UNL1       -0.1415
      9 N           3.1522    0.5743   -0.3670 N.am    1  UNL1       -0.2601
     10 N          -2.3765   -1.3095   -1.6699 N.3     1  UNL1       -0.3109
     11 N          -5.6848   -0.9433    0.0945 N.3     1  UNL1       -0.1786
     12 N          -7.4959    0.3689   -1.3098 N.3     1  UNL1       -0.1934
     13 C           3.2190   -0.8739   -0.0835 C.3     1  UNL1        0.0519
     14 C           4.6716   -0.5977    0.4180 C.3     1  UNL1        0.0811
     15 C           1.9506   -1.1473    0.7522 C.3     1  UNL1        0.0091
     16 C           4.3903    0.8872    0.1030 C.2     1  UNL1        0.2276
     17 C           1.2127    0.1779    0.6735 C.2     1  UNL1        0.0188
     18 C           1.9666    1.0987    0.0574 C.2     1  UNL1        0.1310
     19 C           5.8894   -1.1621   -0.2689 C.3     1  UNL1        0.0653
     20 C           2.2255   -1.6277    2.1677 C.3     1  UNL1       -0.0561
     21 C          -1.2845   -0.8103    0.3406 C.3     1  UNL1        0.0236
     22 C          -2.7724   -0.8109    0.6486 C.3     1  UNL1       -0.0229
     23 C          -3.3836   -1.4421   -0.6049 C.3     1  UNL1        0.0229
     24 C          -1.2713   -0.5026   -1.1457 C.3     1  UNL1        0.0084
     25 C           6.0768   -2.6395    0.0603 C.3     1  UNL1       -0.0382
     26 C           1.6703    2.5122   -0.1505 C.2     1  UNL1        0.3521
     27 C          -4.7176   -0.8137   -0.9864 C.3     1  UNL1        0.0339
     28 H           3.1912   -1.4492   -1.0202 H       1  UNL1        0.0519
     29 H           4.7745   -0.7329    1.5046 H       1  UNL1        0.0438
     30 H           1.3705   -1.9200    0.2329 H       1  UNL1        0.0370
     31 H           6.7848   -0.6093    0.0374 H       1  UNL1        0.0598
     32 H           1.2977   -1.8967    2.6832 H       1  UNL1        0.0236
     33 H           2.8704   -2.5128    2.1539 H       1  UNL1        0.0236
     34 H           2.7291   -0.8596    2.7647 H       1  UNL1        0.0236
     35 H          -0.8862   -1.8143    0.5325 H       1  UNL1        0.0428
     36 H          -3.0021   -1.3887    1.5506 H       1  UNL1        0.0292
     37 H          -3.1453    0.2118    0.7921 H       1  UNL1        0.0292
     38 H          -3.5315   -2.5142   -0.4232 H       1  UNL1        0.0474
     39 H          -1.4689    0.5574   -1.3491 H       1  UNL1        0.0435
     40 H          -0.3320   -0.7837   -1.6311 H       1  UNL1        0.0435
     41 H           5.2188   -3.2280   -0.2834 H       1  UNL1        0.0255
     42 H           6.9608   -3.0391   -0.4477 H       1  UNL1        0.0255
     43 H           6.1895   -2.7947    1.1378 H       1  UNL1        0.0255
     44 H          -2.7644   -0.8823   -2.5090 H       1  UNL1        0.1223
     45 H          -5.1204   -1.3055   -1.8795 H       1  UNL1        0.0457
     46 H          -4.5646    0.2443   -1.2317 H       1  UNL1        0.0457
     47 H           6.5542   -1.3762   -2.0948 H       1  UNL1        0.2098
     48 H          -6.0193   -1.9077    0.2229 H       1  UNL1        0.1491
     49 H           2.0798    3.8905   -1.4605 H       1  UNL1        0.2954
     50 H          -8.0435    1.2116   -1.5309 H       1  UNL1        0.1453
     51 H          -7.9818   -0.4744   -1.6439 H       1  UNL1        0.1453
@<TRIPOS>BOND
     1     1    17    1
     2     1    21    1
     3     2     7    2
     4     2     8    2
     5     2    11    1
     6     2    12    1
     7     3    16    2
     8     4    19    1
     9     4    47    1
    10     5    26    1
    11     5    49    1
    12     6    26    2
    13     9    13    1
    14     9    16   am
    15     9    18    1
    16    10    23    1
    17    10    24    1
    18    10    44    1
    19    11    27    1
    20    11    48    1
    21    12    50    1
    22    12    51    1
    23    13    14    1
    24    13    15    1
    25    13    28    1
    26    14    16    1
    27    14    19    1
    28    14    29    1
    29    15    17    1
    30    15    20    1
    31    15    30    1
    32    17    18    2
    33    18    26    1
    34    19    25    1
    35    19    31    1
    36    20    32    1
    37    20    33    1
    38    20    34    1
    39    21    22    1
    40    21    24    1
    41    21    35    1
    42    22    23    1
    43    22    36    1
    44    22    37    1
    45    23    27    1
    46    23    38    1
    47    24    39    1
    48    24    40    1
    49    25    41    1
    50    25    42    1
    51    25    43    1
    52    27    45    1
    53    27    46    1
