@<TRIPOS>MOLECULE
104838
 37 38 0 0 0
SMALL
GASTEIGER

@<TRIPOS>ATOM
      1 S          -1.9571   -0.7478   -1.0576 S.3     1  UNL1       -0.1256
      2 O           4.8684   -2.0933   -0.1666 O.3     1  UNL1       -0.3912
      3 O           2.4921    1.5454    1.4405 O.2     1  UNL1       -0.2748
      4 O           0.4368    3.0473   -0.7327 O.3     1  UNL1       -0.4762
      5 O          -1.4447    2.1400    0.1986 O.2     1  UNL1       -0.2437
      6 N           1.6600    0.6474   -0.5773 N.am    1  UNL1       -0.2603
      7 N          -4.6317   -0.4415    0.4103 N.2     1  UNL1       -0.2761
      8 N          -6.9727    0.1637    0.1804 N.pl3   1  UNL1       -0.3494
      9 C           2.0749   -0.7218   -0.9541 C.3     1  UNL1        0.0493
     10 C           2.9790   -0.6941    0.3080 C.3     1  UNL1        0.0809
     11 C           0.7602   -1.5035   -1.0527 C.3     1  UNL1        0.0002
     12 C           2.4146    0.7225    0.5561 C.2     1  UNL1        0.2276
     13 C           4.4738   -0.7475    0.1011 C.3     1  UNL1        0.0653
     14 C           0.2990    0.7530   -0.6299 C.2     1  UNL1        0.1308
     15 C          -0.2794   -0.4196   -0.9173 C.2     1  UNL1        0.0157
     16 C           5.2198   -0.2465    1.3325 C.3     1  UNL1       -0.0382
     17 C          -0.3514    2.0251   -0.3325 C.2     1  UNL1        0.3521
     18 C          -2.3392   -1.2005    0.6506 C.3     1  UNL1        0.0176
     19 C          -3.8027   -1.5891    0.7894 C.3     1  UNL1        0.0504
     20 C          -5.8997   -0.6393    0.4534 C.2     1  UNL1        0.0732
     21 H           2.6250   -0.7124   -1.9047 H       1  UNL1        0.0516
     22 H           2.6480   -1.3940    1.0881 H       1  UNL1        0.0438
     23 H           0.6734   -2.2460   -0.2528 H       1  UNL1        0.0337
     24 H           0.6818   -2.0066   -2.0224 H       1  UNL1        0.0337
     25 H           4.7789   -0.1395   -0.7587 H       1  UNL1        0.0598
     26 H           6.2983   -0.3948    1.2100 H       1  UNL1        0.0255
     27 H           5.0392    0.8155    1.5187 H       1  UNL1        0.0255
     28 H           4.9229   -0.8091    2.2248 H       1  UNL1        0.0255
     29 H           4.4169   -2.3731   -0.9812 H       1  UNL1        0.2098
     30 H          -2.1119   -0.3548    1.3087 H       1  UNL1        0.0398
     31 H          -1.7090   -2.0433    0.9538 H       1  UNL1        0.0398
     32 H           0.0296    3.9204   -0.5474 H       1  UNL1        0.2954
     33 H          -3.9996   -1.8640    1.8328 H       1  UNL1        0.0517
     34 H          -4.0301   -2.4597    0.1611 H       1  UNL1        0.0517
     35 H          -6.2699   -1.6329    0.7657 H       1  UNL1        0.0990
     36 H          -7.9257   -0.1716    0.2734 H       1  UNL1        0.1431
     37 H          -6.8458    1.1229   -0.1238 H       1  UNL1        0.1431
@<TRIPOS>BOND
     1     1    15    1
     2     1    18    1
     3     2    13    1
     4     2    29    1
     5     3    12    2
     6     4    17    1
     7     4    32    1
     8     5    17    2
     9     6     9    1
    10     6    12   am
    11     6    14    1
    12     7    19    1
    13     7    20    2
    14     8    20    1
    15     8    36    1
    16     8    37    1
    17     9    10    1
    18     9    11    1
    19     9    21    1
    20    10    12    1
    21    10    13    1
    22    10    22    1
    23    11    15    1
    24    11    23    1
    25    11    24    1
    26    13    16    1
    27    13    25    1
    28    14    15    2
    29    14    17    1
    30    16    26    1
    31    16    27    1
    32    16    28    1
    33    18    19    1
    34    18    30    1
    35    18    31    1
    36    19    33    1
    37    19    34    1
    38    20    35    1
