@<TRIPOS>MOLECULE
54675783
 60 63 0 0 0
SMALL
GASTEIGER

@<TRIPOS>ATOM
      1 O          -2.7996   -1.3246    1.8801 O.3     1  UNL1       -0.3732
      2 O          -0.4899   -2.5253    1.8456 O.2     1  UNL1       -0.2887
      3 O          -2.0449   -2.4364   -0.8206 O.2     1  UNL1       -0.5068
      4 O           1.6677   -2.9127    0.2696 O.2     1  UNL1       -0.5057
      5 O          -4.1455    1.8153   -1.4048 O.2     1  UNL1       -0.2901
      6 O           4.3102   -2.9882    0.2570 O.3     1  UNL1       -0.5060
      7 O          -4.6524   -0.7100   -2.9376 O.2     1  UNL1       -0.2702
      8 N          -4.2372    1.1826    1.5451 N.3     1  UNL1       -0.2984
      9 N           4.4448    2.5143   -0.5399 N.pl3   1  UNL1       -0.3358
     10 N          -2.4088   -0.9602   -3.4234 N.am    1  UNL1       -0.3252
     11 C          -1.7888    0.7434    1.1635 C.3     1  UNL1        0.0257
     12 C          -1.8807   -0.7740    0.9291 C.3     1  UNL1        0.1898
     13 C          -0.5767    1.3596    0.4366 C.3     1  UNL1       -0.0375
     14 C           0.7574    0.7177    0.8420 C.3     1  UNL1       -0.0045
     15 C          -3.0745    1.4558    0.7028 C.3     1  UNL1        0.0798
     16 C           0.7124   -0.7859    0.7701 C.2     1  UNL1        0.0438
     17 C          -0.5419   -1.4536    1.2400 C.2     1  UNL1        0.2021
     18 C           1.8728    1.3176   -0.0405 C.3     1  UNL1       -0.0181
     19 C          -2.3705   -1.1403   -0.4580 C.2     1  UNL1        0.1490
     20 C          -3.4669    1.0564   -0.7100 C.2     1  UNL1        0.1888
     21 C           3.1327    0.4929   -0.0624 C.ar    1  UNL1       -0.0117
     22 C          -3.0701   -0.2918   -1.2410 C.2     1  UNL1        0.1207
     23 C           1.7599   -1.5389    0.3825 C.2     1  UNL1        0.1346
     24 C           3.0687   -0.9039    0.1047 C.ar    1  UNL1        0.0631
     25 C           4.3616    1.1188   -0.3225 C.ar    1  UNL1        0.0333
     26 C          -5.3880    1.9610    1.0912 C.3     1  UNL1       -0.0124
     27 C          -3.9339    1.4821    2.9431 C.3     1  UNL1       -0.0124
     28 C           4.2655   -1.6377    0.0499 C.ar    1  UNL1        0.1279
     29 C          -3.4733   -0.6708   -2.6074 C.2     1  UNL1        0.2483
     30 C           5.5345    0.3718   -0.3860 C.ar    1  UNL1       -0.0369
     31 C           5.4867   -1.0046   -0.1954 C.ar    1  UNL1       -0.0177
     32 C           4.6618    3.4148    0.5726 C.3     1  UNL1        0.0004
     33 C           4.3070    3.0549   -1.8756 C.3     1  UNL1        0.0004
     34 H          -1.6009    0.9308    2.2270 H       1  UNL1        0.0357
     35 H          -0.5298    2.4344    0.6579 H       1  UNL1        0.0276
     36 H          -0.7073    1.2793   -0.6503 H       1  UNL1        0.0276
     37 H           0.9652    0.9792    1.8895 H       1  UNL1        0.0354
     38 H          -2.8692    2.5364    0.6855 H       1  UNL1        0.0549
     39 H           2.0594    2.3347    0.3213 H       1  UNL1        0.0320
     40 H           1.5307    1.4044   -1.0807 H       1  UNL1        0.0320
     41 H          -2.9350   -2.2641    1.6666 H       1  UNL1        0.2113
     42 H          -5.1538    3.0205    0.9356 H       1  UNL1        0.0391
     43 H          -5.8411    1.5425    0.1876 H       1  UNL1        0.0391
     44 H          -6.1952    1.9164    1.8335 H       1  UNL1        0.0391
     45 H          -3.2628    0.7481    3.3972 H       1  UNL1        0.0391
     46 H          -3.5145    2.4865    3.0743 H       1  UNL1        0.0391
     47 H          -4.8448    1.4259    3.5521 H       1  UNL1        0.0391
     48 H          -2.4076   -2.6186   -1.7030 H       1  UNL1        0.2918
     49 H           0.7495   -3.1959    0.4057 H       1  UNL1        0.2922
     50 H           6.4901    0.8506   -0.5832 H       1  UNL1        0.0637
     51 H           6.4121   -1.5735   -0.2384 H       1  UNL1        0.0655
     52 H          -1.4440   -0.9043   -3.1118 H       1  UNL1        0.1453
     53 H          -2.5550   -1.2367   -4.3887 H       1  UNL1        0.1453
     54 H           5.2277   -3.3011    0.1815 H       1  UNL1        0.2922
     55 H           4.1658    3.0574    1.4818 H       1  UNL1        0.0428
     56 H           5.7330    3.5049    0.7800 H       1  UNL1        0.0428
     57 H           4.2694    4.4148    0.3592 H       1  UNL1        0.0428
     58 H           4.9413    2.5116   -2.5846 H       1  UNL1        0.0428
     59 H           3.2688    2.9836   -2.2151 H       1  UNL1        0.0428
     60 H           4.6025    4.1088   -1.9160 H       1  UNL1        0.0428
@<TRIPOS>BOND
     1     1    12    1
     2     1    41    1
     3     2    17    2
     4     3    19    1
     5     3    48    1
     6     4    23    1
     7     4    49    1
     8     5    20    2
     9     6    28    1
    10     6    54    1
    11     7    29    2
    12     8    15    1
    13     8    26    1
    14     8    27    1
    15     9    25    1
    16     9    32    1
    17     9    33    1
    18    10    29   am
    19    10    52    1
    20    10    53    1
    21    11    12    1
    22    11    13    1
    23    11    15    1
    24    11    34    1
    25    12    17    1
    26    12    19    1
    27    13    14    1
    28    13    35    1
    29    13    36    1
    30    14    16    1
    31    14    18    1
    32    14    37    1
    33    15    20    1
    34    15    38    1
    35    16    17    1
    36    16    23    2
    37    18    21    1
    38    18    39    1
    39    18    40    1
    40    19    22    2
    41    20    22    1
    42    21    24   ar
    43    21    25   ar
    44    22    29    1
    45    23    24    1
    46    24    28   ar
    47    25    30   ar
    48    26    42    1
    49    26    43    1
    50    26    44    1
    51    27    45    1
    52    27    46    1
    53    27    47    1
    54    28    31   ar
    55    30    31   ar
    56    30    50    1
    57    31    51    1
    58    32    55    1
    59    32    56    1
    60    32    57    1
    61    33    58    1
    62    33    59    1
    63    33    60    1
