REMARK  6 active torsions:
REMARK  status: ('A' for Active; 'I' for Inactive)
REMARK    1  A    between atoms: O_1  and  C_10 
REMARK    2  A    between atoms: O_1  and  C_13 
REMARK    3  A    between atoms: C_3  and  C_4 
REMARK    4  A    between atoms: C_3  and  C_5 
REMARK    5  A    between atoms: C_4  and  C_6 
REMARK    6  A    between atoms: C_7  and  C_10 
ROOT
ATOM      1  C   UNL d   1      -0.443  -1.734   0.088  0.00  0.00    -0.085 C 
ATOM      2  C   UNL d   1       0.598  -1.528  -0.743  0.00  0.00     0.002 C 
ATOM      3  C   UNL d   1      -0.346  -1.625   1.586  0.00  0.00     0.043 C 
ENDROOT
BRANCH   1   4
ATOM      4  C   UNL d   1      -1.823  -2.091  -0.446  0.00  0.00     0.037 C 
BRANCH   4   5
ATOM      5  C   UNL d   1      -2.931  -1.074  -0.111  0.00  0.00     0.031 C 
BRANCH   5   6
ATOM      6  C   UNL d   1      -2.661   0.292  -0.682  0.00  0.00    -0.024 C 
ATOM      7  C   UNL d   1      -2.579   1.468  -0.028  0.00  0.00    -0.091 C 
ATOM      8  C   UNL d   1      -2.275   2.736  -0.783  0.00  0.00     0.042 C 
ATOM      9  C   UNL d   1      -2.758   1.663   1.452  0.00  0.00     0.042 C 
ENDBRANCH   5   6
ENDBRANCH   4   5
ENDBRANCH   1   4
BRANCH   2  10
ATOM     10  C   UNL d   1       2.013  -1.196  -0.358  0.00  0.00     0.206 C 
BRANCH  10  11
ATOM     11  O   UNL d   1       2.137   0.229  -0.364  0.00  0.00    -0.318 OA
BRANCH  11  12
ATOM     12  C   UNL d   1       3.357   0.684   0.020  0.00  0.00     0.255 C 
ATOM     13  O   UNL d   1       4.310  -0.012   0.342  0.00  0.00    -0.266 OA
ATOM     14  C   UNL d   1       3.373   2.184  -0.005  0.00  0.00     0.126 C 
ENDBRANCH  11  12
ENDBRANCH  10  11
ENDBRANCH   2  10
TORSDOF 6
