REMARK  1 active torsions:
REMARK  status: ('A' for Active; 'I' for Inactive)
REMARK    1  A    between atoms: O_1  and  C_7 
ROOT
ATOM      1  C   UNL d   1      -1.001  -0.291   0.639  0.00  0.00     0.006 A 
ATOM      2  C   UNL d   1      -2.334  -0.277  -0.091  0.00  0.00    -0.039 A 
ATOM      3  C   UNL d   1      -1.809   0.986   0.574  0.00  0.00    -0.001 A 
ATOM      4  C   UNL d   1       0.312  -0.396  -0.087  0.00  0.00     0.033 C 
ATOM      5  C   UNL d   1       1.354   0.569   0.531  0.00  0.00     0.021 C 
ATOM      6  C   UNL d   1       0.960  -1.812  -0.073  0.00  0.00     0.059 C 
ATOM      7  C   UNL d   1      -1.324   2.180  -0.194  0.00  0.00     0.010 C 
ATOM      8  C   UNL d   1      -3.487  -0.980   0.577  0.00  0.00     0.015 C 
ATOM      9  C   UNL d   1      -2.381  -0.384  -1.596  0.00  0.00     0.015 C 
ATOM     10  C   UNL d   1       2.678  -0.167   0.294  0.00  0.00     0.012 C 
ATOM     11  C   UNL d   1       2.323  -1.619   0.603  0.00  0.00     0.038 C 
ATOM     12  C   UNL d   1      -0.035   2.757   0.394  0.00  0.00     0.034 C 
ATOM     13  C   UNL d   1       1.225   1.996   0.004  0.00  0.00    -0.085 C 
ATOM     14  C   UNL d   1       0.172  -2.946   0.582  0.00  0.00     0.046 C 
ATOM     15  C   UNL d   1       2.163   2.609  -0.742  0.00  0.00     0.014 C 
ENDROOT
BRANCH   6  16
ATOM     16  O   UNL d   1       1.188  -2.211  -1.432  0.00  0.00    -0.390 OA
ATOM     17  H   UNL d   1       0.324  -2.284  -1.868  0.00  0.00     0.210 HD
ENDBRANCH   6  16
TORSDOF 1
