REMARK  18 active torsions:
REMARK  status: ('A' for Active; 'I' for Inactive)
REMARK    1  A    between atoms: P_1  and  O_9 
REMARK    2  A    between atoms: P_1  and  O_11 
REMARK    3  A    between atoms: P_1  and  O_12 
REMARK    4  A    between atoms: P_2  and  O_10 
REMARK    5  A    between atoms: P_2  and  O_11 
REMARK    6  A    between atoms: P_2  and  O_13 
REMARK    7  A    between atoms: O_5  and  C_28 
REMARK    8  A    between atoms: O_6  and  C_29 
REMARK    9  A    between atoms: O_7  and  C_32 
REMARK   10  A    between atoms: O_8  and  C_34 
REMARK   11  A    between atoms: O_9  and  C_36 
REMARK   12  A    between atoms: O_10  and  C_37 
REMARK   13  A    between atoms: N_17  and  C_31 
REMARK   14  A    between atoms: N_26  and  C_43 
REMARK       I    between atoms: N_27  and  C_48 
REMARK   15  A    between atoms: C_30  and  C_36 
REMARK   16  A    between atoms: C_33  and  C_37 
REMARK   17  A    between atoms: C_35  and  C_38 
REMARK   18  A    between atoms: C_45  and  C_48 
ROOT
ATOM      1  P   UNL d   1       2.425  -2.968   1.645  0.00  0.00     0.401 P 
ATOM      2  O   UNL d   1       3.896  -2.998   1.871  0.00  0.00    -0.631 OA
ENDROOT
BRANCH   1   3
ATOM      3  O   UNL d   1       1.615  -1.994   2.637  0.00  0.00    -0.294 OA
BRANCH   3   4
ATOM      4  C   UNL d   1       0.343  -1.499   2.246  0.00  0.00     0.215 C 
BRANCH   4   5
ATOM      5  C   UNL d   1      -0.155  -0.451   3.249  0.00  0.00     0.180 C 
ATOM      6  O   UNL d   1       0.704   0.712   3.221  0.00  0.00    -0.353 OA
ATOM      7  C   UNL d   1      -0.035   1.815   2.654  0.00  0.00     0.262 C 
ATOM      8  C   UNL d   1      -1.267   1.226   1.976  0.00  0.00     0.198 C 
ATOM      9  C   UNL d   1      -1.559   0.045   2.894  0.00  0.00     0.182 C 
BRANCH   7  10
ATOM     10  N   UNL d   1       0.801   2.569   1.745  0.00  0.00    -0.297 N 
ATOM     11  C   UNL d   1       1.777   2.099   0.896  0.00  0.00     0.142 A 
ATOM     12  N   UNL d   1       2.172   0.831   0.691  0.00  0.00    -0.336 N 
ATOM     13  C   UNL d   1       2.273   3.232   0.273  0.00  0.00     0.122 A 
ATOM     14  C   UNL d   1       3.219   0.785  -0.157  0.00  0.00     0.183 A 
ATOM     15  HN  UNL d   1       1.737   0.014   1.119  1.00  0.00     0.168 HD
ATOM     16  N   UNL d   1       3.777   1.796  -0.856  0.00  0.00    -0.337 N 
ATOM     17  C   UNL d   1       3.301   3.047  -0.664  0.00  0.00     0.131 A 
ATOM     18  HN  UNL d   1       4.538   1.621  -1.512  1.00  0.00     0.168 HD
ATOM     19  N   UNL d   1       1.602   4.362   0.692  0.00  0.00    -0.346 N 
ATOM     20  C   UNL d   1       0.728   3.928   1.566  0.00  0.00     0.188 A 
ATOM     21  HN  UNL d   1       1.753   5.324   0.388  1.00  0.00     0.167 HD
BRANCH  17  22
ATOM     22  N   UNL d   1       3.820   4.074  -1.426  0.00  0.00    -0.383 N 
ATOM     23  H   UNL d   1       3.601   5.018  -1.131  0.00  0.00     0.157 HD
ATOM     24  H   UNL d   1       4.688   3.882  -1.906  0.00  0.00     0.157 HD
ENDBRANCH  17  22
ENDBRANCH   7  10
BRANCH   8  25
ATOM     25  O   UNL d   1      -2.332   2.162   1.860  0.00  0.00    -0.388 OA
ATOM     26  H   UNL d   1      -3.161   1.663   1.766  0.00  0.00     0.210 HD
ENDBRANCH   8  25
BRANCH   9  27
ATOM     27  O   UNL d   1      -2.241   0.500   4.065  0.00  0.00    -0.390 OA
ATOM     28  H   UNL d   1      -2.368  -0.261   4.660  0.00  0.00     0.210 HD
ENDBRANCH   9  27
ENDBRANCH   4   5
ENDBRANCH   3   4
ENDBRANCH   1   3
BRANCH   1  29
ATOM     29  O   UNL d   1       1.932  -2.582   0.193  0.00  0.00    -0.195 OA
BRANCH  29  30
ATOM     30  P   UNL d   1       2.457  -3.167  -1.177  0.00  0.00     0.401 P 
ATOM     31  O   UNL d   1       3.927  -3.311  -1.342  0.00  0.00    -0.631 OA
BRANCH  30  32
ATOM     32  O   UNL d   1       1.768  -2.231  -2.290  0.00  0.00    -0.294 OA
BRANCH  32  33
ATOM     33  C   UNL d   1       0.363  -2.058  -2.278  0.00  0.00     0.215 C 
BRANCH  33  34
ATOM     34  C   UNL d   1      -0.048  -1.071  -3.373  0.00  0.00     0.178 C 
ATOM     35  O   UNL d   1      -1.483  -0.927  -3.349  0.00  0.00    -0.367 OA
ATOM     36  C   UNL d   1      -1.800   0.420  -2.916  0.00  0.00     0.203 C 
ATOM     37  C   UNL d   1      -0.517   1.007  -2.329  0.00  0.00     0.184 C 
ATOM     38  C   UNL d   1       0.542   0.332  -3.189  0.00  0.00     0.180 C 
BRANCH  36  39
ATOM     39  C   UNL d   1      -2.917   0.395  -1.888  0.00  0.00     0.041 A 
ATOM     40  N   UNL d   1      -2.979  -0.664  -1.031  0.00  0.00    -0.353 N 
ATOM     41  C   UNL d   1      -4.018  -0.683  -0.154  0.00  0.00     0.100 A 
ATOM     42  HN  UNL d   1      -2.279  -1.406  -1.047  1.00  0.00     0.166 HD
ATOM     43  C   UNL d   1      -4.960   0.329  -0.037  0.00  0.00     0.035 A 
ATOM     44  C   UNL d   1      -4.843   1.427  -0.879  0.00  0.00     0.004 A 
ATOM     45  C   UNL d   1      -3.816   1.463  -1.818  0.00  0.00     0.028 A 
BRANCH  41  46
ATOM     46  C   UNL d   1      -4.069  -1.869   0.757  0.00  0.00     0.266 C 
ATOM     47  O   UNL d   1      -4.931  -2.019   1.613  0.00  0.00    -0.266 OA
ATOM     48  N   UNL d   1      -3.054  -2.782   0.595  0.00  0.00    -0.365 N 
ATOM     49  H   UNL d   1      -3.190  -3.686   1.028  0.00  0.00     0.159 HD
ATOM     50  H   UNL d   1      -2.523  -2.723  -0.270  0.00  0.00     0.159 HD
ENDBRANCH  41  46
ENDBRANCH  36  39
BRANCH  37  51
ATOM     51  O   UNL d   1      -0.499   2.428  -2.356  0.00  0.00    -0.390 OA
ATOM     52  H   UNL d   1       0.430   2.718  -2.289  0.00  0.00     0.210 HD
ENDBRANCH  37  51
BRANCH  38  53
ATOM     53  O   UNL d   1       0.635   0.996  -4.455  0.00  0.00    -0.390 OA
ATOM     54  H   UNL d   1       1.306   0.527  -4.983  0.00  0.00     0.210 HD
ENDBRANCH  38  53
ENDBRANCH  33  34
ENDBRANCH  32  33
ENDBRANCH  30  32
BRANCH  30  55
ATOM     55  O   UNL d   1       1.673  -4.556  -1.325  0.00  0.00    -0.307 OA
ATOM     56  H   UNL d   1       2.246  -5.303  -1.056  0.00  0.00     0.222 HD
ENDBRANCH  30  55
ENDBRANCH  29  30
ENDBRANCH   1  29
BRANCH   1  57
ATOM     57  O   UNL d   1       1.708  -4.379   1.912  0.00  0.00    -0.307 OA
ATOM     58  H   UNL d   1       0.740  -4.340   1.979  0.00  0.00     0.222 HD
ENDBRANCH   1  57
TORSDOF 18
