REMARK  5 active torsions:
REMARK  status: ('A' for Active; 'I' for Inactive)
REMARK    1  A    between atoms: O_1  and  C_5 
REMARK    2  A    between atoms: O_1  and  C_7 
REMARK    3  A    between atoms: C_3  and  C_4 
REMARK    4  A    between atoms: C_3  and  C_7 
REMARK    5  A    between atoms: C_5  and  C_6 
ROOT
ATOM      1  C   UNL d   1       0.285  -1.099   0.001  0.00  0.00     0.217 C 
ENDROOT
BRANCH   1   2
ATOM      2  O   UNL d   1      -0.703  -0.066   0.002  0.00  0.00    -0.317 OA
BRANCH   2   3
ATOM      3  C   UNL d   1      -1.984  -0.527   0.000  0.00  0.00     0.259 C 
ATOM      4  O   UNL d   1      -2.308  -1.705  -0.002  0.00  0.00    -0.265 OA
BRANCH   3   5
ATOM      5  C   UNL d   1      -2.935   0.648   0.004  0.00  0.00     0.111 C 
BRANCH   5   6
ATOM      6  C   UNL d   1      -4.397   0.210  -0.020  0.00  0.00     0.005 C 
ATOM      7  C   UNL d   1      -5.336   1.406   0.011  0.00  0.00     0.005 C 
ENDBRANCH   5   6
ENDBRANCH   3   5
ENDBRANCH   2   3
ENDBRANCH   1   2
BRANCH   1   8
ATOM      8  C   UNL d   1       1.642  -0.444   0.000  0.00  0.00    -0.034 A 
ATOM      9  C   UNL d   1       2.275  -0.118  -1.208  0.00  0.00     0.009 A 
ATOM     10  C   UNL d   1       3.527   0.498  -1.208  0.00  0.00     0.001 A 
ATOM     11  C   UNL d   1       4.156   0.802  -0.002  0.00  0.00     0.000 A 
ATOM     12  C   UNL d   1       3.530   0.497   1.205  0.00  0.00     0.001 A 
ATOM     13  C   UNL d   1       2.277  -0.119   1.208  0.00  0.00     0.009 A 
ENDBRANCH   1   8
TORSDOF 5
