REMARK  1 active torsions:
REMARK  status: ('A' for Active; 'I' for Inactive)
REMARK    1  A    between atoms: C_2  and  C_6 
ROOT
ATOM      1  C   UNL d   1       0.068  -0.766   0.468  0.00  0.00     0.021 C 
ATOM      2  C   UNL d   1       1.337  -0.772  -0.425  0.00  0.00     0.001 C 
ATOM      3  C   UNL d   1      -0.300   0.680   0.922  0.00  0.00     0.022 C 
ATOM      4  C   UNL d   1      -1.721   0.662   1.513  0.00  0.00     0.014 C 
ATOM      5  C   UNL d   1       1.138   0.132  -1.656  0.00  0.00     0.033 C 
ATOM      6  C   UNL d   1      -0.099   1.734  -0.166  0.00  0.00    -0.083 C 
ATOM      7  C   UNL d   1      -1.068  -1.490  -0.222  0.00  0.00    -0.019 C 
ATOM      8  C   UNL d   1      -2.767   0.181   0.505  0.00  0.00     0.034 C 
ATOM      9  C   UNL d   1       0.536   1.461  -1.321  0.00  0.00    -0.024 C 
ATOM     10  C   UNL d   1      -2.340  -1.060  -0.231  0.00  0.00    -0.087 C 
ATOM     11  C   UNL d   1      -0.587   3.128   0.114  0.00  0.00     0.043 C 
ATOM     12  C   UNL d   1      -3.416  -1.796  -0.970  0.00  0.00     0.043 C 
ENDROOT
BRANCH   2  13
ATOM     13  C   UNL d   1       2.603  -0.372   0.373  0.00  0.00    -0.018 C 
ATOM     14  C   UNL d   1       2.761  -1.261   1.607  0.00  0.00     0.010 C 
ATOM     15  C   UNL d   1       3.845  -0.459  -0.515  0.00  0.00     0.010 C 
ENDBRANCH   2  13
TORSDOF 1
