REMARK  1 active torsions:
REMARK  status: ('A' for Active; 'I' for Inactive)
REMARK    1  A    between atoms: C_2  and  C_7 
ROOT
ATOM      1  O   UNL d   1      -2.383   1.661  -0.002  0.00  0.00    -0.298 OA
ATOM      2  C   UNL d   1       0.713  -0.108  -0.418  0.00  0.00    -0.026 A 
ATOM      3  C   UNL d   1      -0.293  -1.229  -0.359  0.00  0.00     0.006 A 
ATOM      4  C   UNL d   1       0.461  -0.975  -1.637  0.00  0.00     0.017 A 
ATOM      5  C   UNL d   1      -1.682  -0.670  -0.160  0.00  0.00     0.056 A 
ATOM      6  C   UNL d   1      -0.019   1.216  -0.304  0.00  0.00     0.089 A 
ATOM      7  C   UNL d   1      -1.480   0.842  -0.142  0.00  0.00     0.131 A 
ATOM      8  C   UNL d   1      -2.305  -1.135   1.145  0.00  0.00     0.018 C 
ENDROOT
BRANCH   2   9
ATOM      9  C   UNL d   1       2.038  -0.252   0.301  0.00  0.00    -0.013 C 
ATOM     10  C   UNL d   1       3.056   0.757  -0.229  0.00  0.00     0.010 C 
ATOM     11  C   UNL d   1       1.871  -0.118   1.816  0.00  0.00     0.010 C 
ENDBRANCH   2   9
TORSDOF 1
