REMARK  8 active torsions:
REMARK  status: ('A' for Active; 'I' for Inactive)
REMARK    1  A    between atoms: O_1  and  C_14 
REMARK    2  A    between atoms: C_2  and  C_4 
REMARK    3  A    between atoms: C_2  and  C_6 
REMARK    4  A    between atoms: C_3  and  C_5 
REMARK    5  A    between atoms: C_3  and  C_7 
REMARK    6  A    between atoms: C_5  and  C_8 
REMARK    7  A    between atoms: C_6  and  C_10 
REMARK    8  A    between atoms: C_13  and  C_14 
ROOT
ATOM      1  C   UNL d   1      -0.490   0.846   0.895  0.00  0.00    -0.087 C 
ATOM      2  C   UNL d   1       0.254   0.822  -0.228  0.00  0.00    -0.024 C 
ATOM      3  C   UNL d   1      -0.512   1.998   1.863  0.00  0.00     0.043 C 
ENDROOT
BRANCH   2   4
ATOM      4  C   UNL d   1       1.171   1.903  -0.731  0.00  0.00     0.031 C 
BRANCH   4   5
ATOM      5  C   UNL d   1       2.611   1.737  -0.218  0.00  0.00     0.037 C 
BRANCH   5   6
ATOM      6  C   UNL d   1       3.257   0.418  -0.603  0.00  0.00    -0.085 C 
ATOM      7  C   UNL d   1       3.447   0.199  -2.080  0.00  0.00     0.043 C 
ATOM      8  C   UNL d   1       3.608  -0.480   0.341  0.00  0.00     0.001 C 
BRANCH   8   9
ATOM      9  C   UNL d   1       4.198  -1.839   0.127  0.00  0.00     0.191 C 
BRANCH   9  10
ATOM     10  O   UNL d   1       3.345  -2.812   0.711  0.00  0.00    -0.397 OA
ATOM     11  H   UNL d   1       3.215  -2.566   1.641  0.00  0.00     0.209 HD
ENDBRANCH   9  10
ENDBRANCH   8   9
ENDBRANCH   5   6
ENDBRANCH   4   5
ENDBRANCH   2   4
BRANCH   1  12
ATOM     12  C   UNL d   1      -1.317  -0.365   1.290  0.00  0.00     0.037 C 
BRANCH  12  13
ATOM     13  C   UNL d   1      -2.816  -0.095   1.476  0.00  0.00     0.031 C 
BRANCH  13  14
ATOM     14  C   UNL d   1      -3.510   0.270   0.193  0.00  0.00    -0.024 C 
ATOM     15  C   UNL d   1      -4.136  -0.572  -0.654  0.00  0.00    -0.091 C 
ATOM     16  C   UNL d   1      -4.815  -0.052  -1.893  0.00  0.00     0.042 C 
ATOM     17  C   UNL d   1      -4.204  -2.063  -0.481  0.00  0.00     0.042 C 
ENDBRANCH  13  14
ENDBRANCH  12  13
ENDBRANCH   1  12
TORSDOF 8
