REMARK  2 active torsions:
REMARK  status: ('A' for Active; 'I' for Inactive)
REMARK    1  A    between atoms: C_3  and  C_7 
REMARK    2  A    between atoms: C_7  and  C_11 
ROOT
ATOM      1  O   UNL d   1       2.013  -1.634  -0.166  0.00  0.00    -0.323 OA
ATOM      2  O   UNL d   1       2.970   0.506   0.408  0.00  0.00    -0.323 OA
ATOM      3  C   UNL d   1      -1.058   0.372  -0.440  0.00  0.00    -0.052 A 
ATOM      4  C   UNL d   1       1.091  -0.633  -0.174  0.00  0.00     0.105 A 
ATOM      5  C   UNL d   1       1.637   0.585   0.153  0.00  0.00     0.105 A 
ATOM      6  C   UNL d   1      -0.248  -0.775  -0.470  0.00  0.00     0.047 A 
ATOM      7  C   UNL d   1      -0.488   1.619  -0.092  0.00  0.00     0.010 A 
ATOM      8  C   UNL d   1       0.874   1.731   0.206  0.00  0.00     0.040 A 
ATOM      9  C   UNL d   1       3.201  -0.903   0.203  0.00  0.00     0.352 A 
ENDROOT
BRANCH   3  10
ATOM     10  C   UNL d   1      -2.532   0.270  -0.752  0.00  0.00     0.065 C 
BRANCH  10  11
ATOM     11  C   UNL d   1      -3.358  -0.013   0.470  0.00  0.00    -0.032 C 
ATOM     12  C   UNL d   1      -4.102  -1.115   0.640  0.00  0.00     0.007 C 
ENDBRANCH  10  11
ENDBRANCH   3  10
TORSDOF 2
