REMARK  3 active torsions:
REMARK  status: ('A' for Active; 'I' for Inactive)
REMARK    1  A    between atoms: O_3  and  C_7 
REMARK    2  A    between atoms: C_4  and  C_10 
REMARK    3  A    between atoms: C_10  and  C_12 
ROOT
ATOM      1  O   UNL d   1       2.799   0.026  -0.172  0.00  0.00    -0.320 OA
ATOM      2  O   UNL d   1       1.855  -2.188  -0.321  0.00  0.00    -0.323 OA
ATOM      3  C   UNL d   1      -1.255  -0.401   0.491  0.00  0.00    -0.049 A 
ATOM      4  C   UNL d   1       1.456   0.022   0.054  0.00  0.00     0.138 A 
ATOM      5  C   UNL d   1       0.921  -1.242  -0.032  0.00  0.00     0.108 A 
ATOM      6  C   UNL d   1       0.660   1.111   0.345  0.00  0.00     0.104 A 
ATOM      7  C   UNL d   1      -0.422  -1.488   0.175  0.00  0.00     0.047 A 
ATOM      8  C   UNL d   1      -0.703   0.898   0.572  0.00  0.00     0.047 A 
ATOM      9  C   UNL d   1       3.044  -1.375  -0.403  0.00  0.00     0.352 A 
ENDROOT
BRANCH   3  10
ATOM     10  C   UNL d   1      -2.731  -0.615   0.726  0.00  0.00     0.065 C 
BRANCH  10  11
ATOM     11  C   UNL d   1      -3.530  -0.495  -0.539  0.00  0.00    -0.032 C 
ATOM     12  C   UNL d   1      -4.475   0.432  -0.752  0.00  0.00     0.007 C 
ENDBRANCH  10  11
ENDBRANCH   3  10
BRANCH   6  13
ATOM     13  O   UNL d   1       1.186   2.358   0.522  0.00  0.00    -0.353 OA
ATOM     14  C   UNL d   1       1.216   3.069  -0.713  0.00  0.00     0.210 C 
ENDBRANCH   6  13
TORSDOF 3
