REMARK  4 active torsions:
REMARK  status: ('A' for Active; 'I' for Inactive)
REMARK    1  A    between atoms: O_1  and  C_25 
REMARK    2  A    between atoms: O_2  and  C_27 
REMARK    3  A    between atoms: C_9  and  C_27 
REMARK    4  A    between atoms: C_17  and  C_28 
ROOT
ATOM      1  C   UNL d   1      -0.585  -0.978   0.118  0.00  0.00    -0.032 C 
ATOM      2  C   UNL d   1       0.898  -0.892  -0.556  0.00  0.00    -0.032 C 
ATOM      3  C   UNL d   1      -1.244   0.461   0.073  0.00  0.00     0.003 C 
ATOM      4  C   UNL d   1       1.754   0.178   0.245  0.00  0.00    -0.000 C 
ATOM      5  C   UNL d   1      -2.796   0.570   0.416  0.00  0.00    -0.035 C 
ATOM      6  C   UNL d   1       3.211   0.200  -0.254  0.00  0.00     0.009 C 
ATOM      7  C   UNL d   1       3.890  -1.178  -0.078  0.00  0.00    -0.014 C 
ATOM      8  C   UNL d   1      -3.562  -0.507  -0.430  0.00  0.00     0.004 C 
ATOM      9  C   UNL d   1       1.640  -2.275  -0.550  0.00  0.00     0.011 C 
ATOM     10  C   UNL d   1      -1.499  -1.971  -0.649  0.00  0.00     0.011 C 
ATOM     11  C   UNL d   1      -0.357   1.497   0.799  0.00  0.00     0.006 C 
ATOM     12  C   UNL d   1       1.069   1.546   0.254  0.00  0.00     0.006 C 
ATOM     13  C   UNL d   1       3.132  -2.206  -0.939  0.00  0.00     0.013 C 
ATOM     14  C   UNL d   1      -2.974  -1.919  -0.237  0.00  0.00     0.007 C 
ATOM     15  C   UNL d   1       4.239   1.172   0.364  0.00  0.00     0.018 C 
ATOM     16  C   UNL d   1      -5.140  -0.450  -0.347  0.00  0.00    -0.017 C 
ATOM     17  C   UNL d   1      -3.298   1.994  -0.022  0.00  0.00     0.012 C 
ATOM     18  C   UNL d   1       5.306  -0.846  -0.585  0.00  0.00     0.012 C 
ATOM     19  C   UNL d   1      -0.468  -1.510   1.578  0.00  0.00     0.016 C 
ATOM     20  C   UNL d   1       0.801  -0.482  -2.069  0.00  0.00     0.016 C 
ATOM     21  C   UNL d   1       5.611   0.532   0.021  0.00  0.00     0.010 C 
ATOM     22  C   UNL d   1      -3.063   0.435   1.933  0.00  0.00     0.016 C 
ATOM     23  C   UNL d   1      -5.653   1.023  -0.248  0.00  0.00     0.126 C 
ATOM     24  C   UNL d   1      -4.631   2.023  -0.778  0.00  0.00     0.033 C 
ATOM     25  C   UNL d   1      -5.701  -1.031  -1.678  0.00  0.00     0.018 C 
ATOM     26  C   UNL d   1      -5.728  -1.319   0.785  0.00  0.00     0.018 C 
ENDROOT
BRANCH   7  27
ATOM     27  C   UNL d   1       3.993  -1.676   1.385  0.00  0.00     0.173 C 
BRANCH  27  28
ATOM     28  O   UNL d   1       4.790  -2.854   1.436  0.00  0.00    -0.400 OA
ATOM     29  H   UNL d   1       4.224  -3.598   1.167  0.00  0.00     0.209 HD
ENDBRANCH  27  28
ENDBRANCH   7  27
BRANCH  15  30
ATOM     30  C   UNL d   1       4.150   2.595  -0.141  0.00  0.00    -0.089 C 
ATOM     31  C   UNL d   1       4.276   2.805  -1.626  0.00  0.00     0.043 C 
ATOM     32  C   UNL d   1       3.967   3.625   0.703  0.00  0.00     0.014 C 
ENDBRANCH  15  30
BRANCH  23  33
ATOM     33  O   UNL d   1      -6.006   1.379   1.086  0.00  0.00    -0.395 OA
ATOM     34  H   UNL d   1      -6.334   2.294   1.072  0.00  0.00     0.210 HD
ENDBRANCH  23  33
TORSDOF 4
