REMARK  11 active torsions:
REMARK  status: ('A' for Active; 'I' for Inactive)
REMARK    1  A    between atoms: P_1  and  O_2 
REMARK    2  A    between atoms: P_1  and  O_3 
REMARK    3  A    between atoms: O_2  and  C_14 
REMARK    4  A    between atoms: O_3  and  C_16 
REMARK    5  A    between atoms: O_4  and  C_15 
REMARK    6  A    between atoms: O_5  and  C_17 
REMARK    7  A    between atoms: O_5  and  C_18 
REMARK    8  A    between atoms: N_9  and  C_10 
REMARK    9  A    between atoms: C_10  and  C_14 
REMARK   10  A    between atoms: C_15  and  C_16 
REMARK   11  A    between atoms: C_15  and  C_17 
ROOT
ATOM      1  P   UNL d   1       1.114   2.627  -0.456  0.00  0.00     0.408 P 
ATOM      2  O   UNL d   1       2.414   3.102   0.132  0.00  0.00    -0.624 OA
ATOM      3  O   UNL d   1       0.318   3.398  -1.470  0.00  0.00    -0.624 OA
ENDROOT
BRANCH   1   4
ATOM      4  O   UNL d   1       1.385   1.144  -1.076  0.00  0.00    -0.288 OA
BRANCH   4   5
ATOM      5  C   UNL d   1       2.273   0.356  -0.314  0.00  0.00     0.209 C 
BRANCH   5   6
ATOM      6  C   UNL d   1       2.099  -1.092  -0.741  0.00  0.00     0.262 C 
BRANCH   6   7
ATOM      7  N   UNL d   1       2.946  -2.093   0.076  0.00  0.00    -0.077 N 
ATOM      8  C   UNL d   1       4.426  -1.788  -0.103  0.00  0.00     0.271 C 
ATOM      9  C   UNL d   1       2.658  -3.495  -0.434  0.00  0.00     0.271 C 
ATOM     10  C   UNL d   1       2.569  -2.016   1.554  0.00  0.00     0.271 C 
ENDBRANCH   6   7
ENDBRANCH   5   6
ENDBRANCH   4   5
ENDBRANCH   1   4
BRANCH   1  11
ATOM     11  O   UNL d   1       0.126   2.189   0.757  0.00  0.00    -0.287 OA
BRANCH  11  12
ATOM     12  C   UNL d   1      -1.154   1.702   0.387  0.00  0.00     0.215 C 
BRANCH  12  13
ATOM     13  C   UNL d   1      -1.637   0.722   1.464  0.00  0.00     0.166 C 
BRANCH  13  14
ATOM     14  O   UNL d   1      -0.717  -0.395   1.552  0.00  0.00    -0.391 OA
ATOM     15  H   UNL d   1      -0.815  -0.838   0.692  0.00  0.00     0.210 HD
ENDBRANCH  13  14
BRANCH  13  16
ATOM     16  C   UNL d   1      -3.018   0.154   1.123  0.00  0.00     0.212 C 
BRANCH  16  17
ATOM     17  O   UNL d   1      -2.894  -0.583  -0.115  0.00  0.00    -0.319 OA
BRANCH  17  18
ATOM     18  C   UNL d   1      -4.044  -1.158  -0.554  0.00  0.00     0.254 C 
ATOM     19  O   UNL d   1      -5.118  -1.131   0.029  0.00  0.00    -0.266 OA
ATOM     20  C   UNL d   1      -3.796  -1.855  -1.857  0.00  0.00     0.126 C 
ENDBRANCH  17  18
ENDBRANCH  16  17
ENDBRANCH  13  16
ENDBRANCH  12  13
ENDBRANCH  11  12
ENDBRANCH   1  11
TORSDOF 11
