REMARK  0 active torsions:
REMARK  status: ('A' for Active; 'I' for Inactive)
ROOT
ATOM      1  O   UNL d   1       0.321   2.920   0.167  0.00  0.00    -0.370 OA
ATOM      2  C   UNL d   1      -0.614   1.878  -0.163  0.00  0.00     0.084 A 
ATOM      3  C   UNL d   1       0.745   1.586   0.487  0.00  0.00     0.157 A 
ATOM      4  C   UNL d   1       1.950   1.123  -0.296  0.00  0.00     0.047 C 
ATOM      5  C   UNL d   1      -1.862   1.904   0.697  0.00  0.00     0.044 C 
ATOM      6  C   UNL d   1       2.332  -0.374  -0.070  0.00  0.00    -0.028 C 
ATOM      7  C   UNL d   1      -0.815   1.726  -1.640  0.00  0.00     0.049 C 
ATOM      8  C   UNL d   1      -2.785   0.688   0.483  0.00  0.00     0.030 C 
ATOM      9  C   UNL d   1       3.377  -0.772  -1.133  0.00  0.00     0.019 C 
ATOM     10  C   UNL d   1       2.982  -0.534   1.319  0.00  0.00     0.019 C 
ATOM     11  C   UNL d   1       1.103  -1.245  -0.279  0.00  0.00    -0.022 C 
ATOM     12  C   UNL d   1      -2.065  -0.594   0.792  0.00  0.00    -0.024 C 
ATOM     13  C   UNL d   1       0.535  -2.107   0.583  0.00  0.00    -0.026 C 
ATOM     14  C   UNL d   1      -1.864  -1.656  -0.013  0.00  0.00    -0.084 C 
ATOM     15  C   UNL d   1      -0.840  -2.711   0.383  0.00  0.00     0.060 C 
ATOM     16  C   UNL d   1      -2.493  -1.853  -1.365  0.00  0.00     0.043 C 
ENDROOT
TORSDOF 0
