REMARK  0 active torsions:
REMARK  status: ('A' for Active; 'I' for Inactive)
ROOT
ATOM      1  O   UNL d   1       3.082  -1.230  -0.432  0.00  0.00    -0.370 OA
ATOM      2  C   UNL d   1      -1.025  -0.523  -0.243  0.00  0.00     0.001 C 
ATOM      3  C   UNL d   1      -2.591  -0.265  -0.210  0.00  0.00    -0.043 C 
ATOM      4  C   UNL d   1      -0.892   0.855   0.508  0.00  0.00     0.019 C 
ATOM      5  C   UNL d   1      -2.244   1.251  -0.138  0.00  0.00     0.018 C 
ATOM      6  C   UNL d   1       1.841  -1.114   0.298  0.00  0.00     0.084 A 
ATOM      7  C   UNL d   1      -0.575  -1.803   0.483  0.00  0.00     0.009 C 
ATOM      8  C   UNL d   1       2.103  -0.359  -0.994  0.00  0.00     0.157 A 
ATOM      9  C   UNL d   1       0.860  -2.236   0.161  0.00  0.00     0.041 C 
ATOM     10  C   UNL d   1       0.229   1.822   0.246  0.00  0.00    -0.085 C 
ATOM     11  C   UNL d   1       2.338   1.105  -1.002  0.00  0.00     0.039 C 
ATOM     12  C   UNL d   1      -3.328  -0.652  -1.490  0.00  0.00     0.015 C 
ATOM     13  C   UNL d   1      -3.354  -0.775   1.019  0.00  0.00     0.015 C 
ATOM     14  C   UNL d   1       0.995   1.856  -1.055  0.00  0.00     0.036 C 
ATOM     15  C   UNL d   1       2.083  -0.577   1.678  0.00  0.00     0.049 C 
ATOM     16  C   UNL d   1       0.484   2.728   1.207  0.00  0.00     0.014 C 
ENDROOT
TORSDOF 0
