REMARK  2 active torsions:
REMARK  status: ('A' for Active; 'I' for Inactive)
REMARK    1  A    between atoms: O_1  and  C_2 
REMARK    2  A    between atoms: C_4  and  C_9 
ROOT
ATOM      1  C   UNL d   1       0.969  -0.850   0.316  0.00  0.00     0.069 C 
ATOM      2  C   UNL d   1      -0.081   0.270   0.588  0.00  0.00     0.047 C 
ATOM      3  C   UNL d   1      -1.320   0.171  -0.352  0.00  0.00    -0.001 C 
ATOM      4  C   UNL d   1       0.295  -2.246   0.267  0.00  0.00     0.017 C 
ATOM      5  C   UNL d   1      -1.911  -1.248  -0.362  0.00  0.00     0.006 C 
ATOM      6  C   UNL d   1      -0.877  -2.297  -0.708  0.00  0.00     0.007 C 
ATOM      7  C   UNL d   1       1.784  -0.501  -0.943  0.00  0.00     0.043 C 
ATOM      8  C   UNL d   1       0.535   1.654   0.493  0.00  0.00    -0.016 C 
ATOM      9  C   UNL d   1       2.493   0.855  -0.827  0.00  0.00     0.036 C 
ATOM     10  C   UNL d   1       1.271  -3.386  -0.044  0.00  0.00     0.013 C 
ATOM     11  C   UNL d   1       1.691   1.924  -0.137  0.00  0.00    -0.087 C 
ATOM     12  C   UNL d   1       2.268   3.308  -0.172  0.00  0.00     0.043 C 
ENDROOT
BRANCH   3  13
ATOM     13  C   UNL d   1      -2.433   1.181   0.023  0.00  0.00    -0.018 C 
ATOM     14  C   UNL d   1      -3.559   1.145  -1.012  0.00  0.00     0.010 C 
ATOM     15  C   UNL d   1      -2.974   0.897   1.425  0.00  0.00     0.010 C 
ENDBRANCH   3  13
BRANCH   1  16
ATOM     16  O   UNL d   1       1.867  -0.900   1.444  0.00  0.00    -0.389 OA
ATOM     17  H   UNL d   1       2.663  -1.382   1.171  0.00  0.00     0.210 HD
ENDBRANCH   1  16
TORSDOF 2
