REMARK  4 active torsions:
REMARK  status: ('A' for Active; 'I' for Inactive)
REMARK    1  A    between atoms: O_2  and  C_11 
REMARK    2  A    between atoms: O_4  and  C_15 
REMARK    3  A    between atoms: O_5  and  C_20 
REMARK    4  A    between atoms: C_7  and  C_10 
ROOT
ATOM      1  O   UNL d   1       1.205   2.031  -0.019  0.00  0.00    -0.321 OA
ATOM      2  O   UNL d   1      -0.077  -1.839  -0.054  0.00  0.00    -0.286 OA
ATOM      3  C   UNL d   1       1.723  -0.344  -0.011  0.00  0.00     0.082 A 
ATOM      4  C   UNL d   1      -0.656   0.477  -0.020  0.00  0.00     0.048 A 
ATOM      5  C   UNL d   1       2.108   0.997  -0.008  0.00  0.00     0.094 A 
ATOM      6  C   UNL d   1       0.288  -0.667  -0.031  0.00  0.00     0.200 A 
ATOM      7  C   UNL d   1       2.698  -1.348   0.003  0.00  0.00     0.085 A 
ATOM      8  C   UNL d   1      -0.133   1.711  -0.015  0.00  0.00     0.159 A 
ATOM      9  C   UNL d   1       3.462   1.335   0.008  0.00  0.00     0.074 A 
ATOM     10  C   UNL d   1       4.051  -1.017   0.020  0.00  0.00     0.074 A 
ATOM     11  C   UNL d   1       4.421   0.325   0.022  0.00  0.00     0.071 A 
ENDROOT
BRANCH   4  12
ATOM     12  C   UNL d   1      -2.108   0.280  -0.009  0.00  0.00    -0.020 A 
ATOM     13  C   UNL d   1      -2.821   0.205  -1.213  0.00  0.00     0.015 A 
ATOM     14  C   UNL d   1      -4.206   0.021  -1.204  0.00  0.00     0.037 A 
ATOM     15  C   UNL d   1      -4.874  -0.084   0.012  0.00  0.00     0.065 A 
ATOM     16  C   UNL d   1      -4.181  -0.010   1.215  0.00  0.00     0.037 A 
ATOM     17  C   UNL d   1      -2.797   0.172   1.206  0.00  0.00     0.015 A 
BRANCH  15  18
ATOM     18  O   UNL d   1      -6.224  -0.262   0.066  0.00  0.00    -0.361 OA
ATOM     19  H   UNL d   1      -6.567  -0.319  -0.841  0.00  0.00     0.217 HD
ENDBRANCH  15  18
ENDBRANCH   4  12
BRANCH   7  20
ATOM     20  O   UNL d   1       2.394  -2.684   0.005  0.00  0.00    -0.360 OA
ATOM     21  H   UNL d   1       1.413  -2.774  -0.007  0.00  0.00     0.217 HD
ENDBRANCH   7  20
BRANCH  11  22
ATOM     22  O   UNL d   1       5.733   0.695   0.037  0.00  0.00    -0.361 OA
ATOM     23  H   UNL d   1       6.286  -0.105   0.048  0.00  0.00     0.217 HD
ENDBRANCH  11  22
TORSDOF 4
