REMARK  12 active torsions:
REMARK  status: ('A' for Active; 'I' for Inactive)
REMARK    1  A    between atoms: O_2  and  C_17 
REMARK    2  A    between atoms: O_2  and  C_19 
REMARK    3  A    between atoms: O_3  and  C_13 
REMARK    4  A    between atoms: O_4  and  C_14 
REMARK    5  A    between atoms: O_5  and  C_15 
REMARK    6  A    between atoms: O_6  and  C_18 
REMARK    7  A    between atoms: O_9  and  C_25 
REMARK    8  A    between atoms: O_10  and  C_30 
REMARK    9  A    between atoms: O_11  and  C_31 
REMARK   10  A    between atoms: O_12  and  C_33 
REMARK   11  A    between atoms: C_16  and  C_18 
REMARK   12  A    between atoms: C_20  and  C_24 
ROOT
ATOM      1  O   UNL d   1      -1.905  -1.736   0.217  0.00  0.00    -0.306 OA
ATOM      2  O   UNL d   1      -1.534   1.891  -1.600  0.00  0.00    -0.284 OA
ATOM      3  C   UNL d   1      -0.470  -0.132  -0.888  0.00  0.00     0.157 A 
ATOM      4  C   UNL d   1      -0.694  -1.321  -0.300  0.00  0.00     0.124 A 
ATOM      5  C   UNL d   1      -1.619   0.804  -1.037  0.00  0.00     0.223 A 
ATOM      6  C   UNL d   1      -2.903   0.372  -0.468  0.00  0.00     0.084 A 
ATOM      7  C   UNL d   1      -2.976  -0.886   0.129  0.00  0.00     0.096 A 
ATOM      8  C   UNL d   1      -4.039   1.186  -0.519  0.00  0.00     0.085 A 
ATOM      9  C   UNL d   1      -4.179  -1.340   0.669  0.00  0.00     0.075 A 
ATOM     10  C   UNL d   1      -5.243   0.738   0.018  0.00  0.00     0.074 A 
ATOM     11  C   UNL d   1      -5.304  -0.523   0.606  0.00  0.00     0.071 A 
ENDROOT
BRANCH   3  12
ATOM     12  O   UNL d   1       0.753   0.232  -1.423  0.00  0.00    -0.311 OA
BRANCH  12  13
ATOM     13  C   UNL d   1       1.541   0.956  -0.457  0.00  0.00     0.298 C 
ATOM     14  O   UNL d   1       0.862   2.122   0.001  0.00  0.00    -0.348 OA
ATOM     15  C   UNL d   1       1.608   2.823   1.000  0.00  0.00     0.179 C 
ATOM     16  C   UNL d   1       2.914   3.357   0.401  0.00  0.00     0.180 C 
ATOM     17  C   UNL d   1       3.724   2.209  -0.235  0.00  0.00     0.183 C 
ATOM     18  C   UNL d   1       2.860   1.328  -1.152  0.00  0.00     0.205 C 
BRANCH  15  19
ATOM     19  C   UNL d   1       0.710   3.955   1.506  0.00  0.00     0.198 C 
BRANCH  19  20
ATOM     20  O   UNL d   1      -0.500   3.409   2.031  0.00  0.00    -0.398 OA
ATOM     21  H   UNL d   1      -0.893   2.897   1.299  0.00  0.00     0.209 HD
ENDBRANCH  19  20
ENDBRANCH  15  19
BRANCH  16  22
ATOM     22  O   UNL d   1       3.701   3.990   1.410  0.00  0.00    -0.390 OA
ATOM     23  H   UNL d   1       3.333   4.872   1.589  0.00  0.00     0.210 HD
ENDBRANCH  16  22
BRANCH  17  24
ATOM     24  O   UNL d   1       4.830   2.756  -0.980  0.00  0.00    -0.390 OA
ATOM     25  H   UNL d   1       4.476   3.281  -1.716  0.00  0.00     0.210 HD
ENDBRANCH  17  24
BRANCH  18  26
ATOM     26  O   UNL d   1       3.584   0.141  -1.514  0.00  0.00    -0.388 OA
ATOM     27  H   UNL d   1       2.974  -0.418  -2.031  0.00  0.00     0.210 HD
ENDBRANCH  18  26
ENDBRANCH  12  13
ENDBRANCH   3  12
BRANCH   4  28
ATOM     28  C   UNL d   1       0.371  -2.319  -0.141  0.00  0.00     0.004 A 
ATOM     29  C   UNL d   1       1.175  -2.317   1.006  0.00  0.00     0.053 A 
ATOM     30  C   UNL d   1       2.190  -3.255   1.129  0.00  0.00     0.099 A 
ATOM     31  C   UNL d   1       2.406  -4.206   0.137  0.00  0.00     0.098 A 
ATOM     32  C   UNL d   1       1.610  -4.228  -1.004  0.00  0.00     0.040 A 
ATOM     33  C   UNL d   1       0.593  -3.278  -1.141  0.00  0.00     0.017 A 
BRANCH  30  34
ATOM     34  O   UNL d   1       2.978  -3.227   2.243  0.00  0.00    -0.358 OA
ATOM     35  H   UNL d   1       3.620  -3.955   2.117  0.00  0.00     0.217 HD
ENDBRANCH  30  34
BRANCH  31  36
ATOM     36  O   UNL d   1       3.415  -5.109   0.325  0.00  0.00    -0.358 OA
ATOM     37  H   UNL d   1       3.440  -5.705  -0.443  0.00  0.00     0.217 HD
ENDBRANCH  31  36
ENDBRANCH   4  28
BRANCH   8  38
ATOM     38  O   UNL d   1      -4.039   2.434  -1.082  0.00  0.00    -0.360 OA
ATOM     39  H   UNL d   1      -3.138   2.616  -1.432  0.00  0.00     0.217 HD
ENDBRANCH   8  38
BRANCH  11  40
ATOM     40  O   UNL d   1      -6.501  -0.931   1.115  0.00  0.00    -0.361 OA
ATOM     41  H   UNL d   1      -6.401  -1.818   1.499  0.00  0.00     0.217 HD
ENDBRANCH  11  40
TORSDOF 12
