REMARK  2 active torsions:
REMARK  status: ('A' for Active; 'I' for Inactive)
REMARK    1  A    between atoms: O_1  and  C_10 
REMARK    2  A    between atoms: C_5  and  C_10 
ROOT
ATOM      1  C   UNL d   1       1.015  -0.672   0.360  0.00  0.00     0.019 C 
ATOM      2  C   UNL d   1       1.946  -1.794  -0.159  0.00  0.00    -0.010 C 
ATOM      3  C   UNL d   1      -0.383  -0.812  -0.265  0.00  0.00     0.017 C 
ATOM      4  C   UNL d   1      -1.489   0.069   0.367  0.00  0.00     0.020 C 
ATOM      5  C   UNL d   1       1.750   0.596  -0.043  0.00  0.00    -0.073 C 
ATOM      6  C   UNL d   1       3.334  -1.167  -0.122  0.00  0.00     0.009 C 
ATOM      7  C   UNL d   1       3.089   0.241  -0.640  0.00  0.00     0.035 C 
ATOM      8  C   UNL d   1      -1.232   1.579   0.171  0.00  0.00     0.012 C 
ATOM      9  C   UNL d   1       1.300   1.847   0.170  0.00  0.00    -0.081 C 
ATOM     10  C   UNL d   1       0.003   2.113   0.894  0.00  0.00     0.034 C 
ATOM     11  C   UNL d   1       1.867  -3.077   0.658  0.00  0.00     0.010 C 
ATOM     12  C   UNL d   1       2.036   3.085  -0.271  0.00  0.00     0.043 C 
ENDROOT
BRANCH   4  13
ATOM     13  C   UNL d   1      -2.909  -0.355  -0.150  0.00  0.00     0.054 C 
ATOM     14  C   UNL d   1      -3.099  -0.122  -1.654  0.00  0.00     0.045 C 
ATOM     15  C   UNL d   1      -4.036   0.344   0.625  0.00  0.00     0.045 C 
BRANCH  13  16
ATOM     16  O   UNL d   1      -3.066  -1.760   0.099  0.00  0.00    -0.390 OA
ATOM     17  H   UNL d   1      -3.922  -2.040  -0.269  0.00  0.00     0.210 HD
ENDBRANCH  13  16
ENDBRANCH   4  13
TORSDOF 2
