REMARK  4 active torsions:
REMARK  status: ('A' for Active; 'I' for Inactive)
REMARK    1  A    between atoms: O_1  and  C_5 
REMARK    2  A    between atoms: O_2  and  C_8 
REMARK    3  A    between atoms: O_3  and  C_11 
REMARK    4  A    between atoms: C_6  and  C_11 
ROOT
ATOM      1  C   UNL d   1       1.210  -0.393  -0.216  0.00  0.00     0.102 A 
ATOM      2  C   UNL d   1      -1.146   0.095  -0.000  0.00  0.00     0.040 A 
ATOM      3  C   UNL d   1      -0.114  -0.828  -0.208  0.00  0.00     0.057 A 
ATOM      4  C   UNL d   1       1.510   0.962  -0.046  0.00  0.00     0.099 A 
ATOM      5  C   UNL d   1      -0.842   1.452   0.178  0.00  0.00     0.021 A 
ATOM      6  C   UNL d   1       0.487   1.887   0.153  0.00  0.00     0.040 A 
ENDROOT
BRANCH   2   7
ATOM      7  C   UNL d   1      -2.541  -0.405   0.019  0.00  0.00     0.176 C 
ATOM      8  O   UNL d   1      -2.887  -1.565  -0.110  0.00  0.00    -0.646 OA
BRANCH   7   9
ATOM      9  O   UNL d   1      -3.442   0.575   0.205  0.00  0.00    -0.773 OA
ATOM     10  H   UNL d   1      -4.303   0.105   0.195  0.00  0.00     0.167 HD
ENDBRANCH   7   9
ENDBRANCH   2   7
BRANCH   1  11
ATOM     11  O   UNL d   1       2.192  -1.308  -0.493  0.00  0.00    -0.353 OA
ATOM     12  C   UNL d   1       2.747  -1.819   0.717  0.00  0.00     0.210 C 
ENDBRANCH   1  11
BRANCH   4  13
ATOM     13  O   UNL d   1       2.814   1.371  -0.076  0.00  0.00    -0.358 OA
ATOM     14  H   UNL d   1       2.843   2.339  -0.029  0.00  0.00     0.217 HD
ENDBRANCH   4  13
TORSDOF 4
