REMARK  15 active torsions:
REMARK  status: ('A' for Active; 'I' for Inactive)
REMARK    1  A    between atoms: O_1  and  C_17 
REMARK    2  A    between atoms: C_3  and  C_4 
REMARK    3  A    between atoms: C_3  and  C_5 
REMARK    4  A    between atoms: C_4  and  C_6 
REMARK    5  A    between atoms: C_5  and  C_7 
REMARK    6  A    between atoms: C_6  and  C_8 
REMARK    7  A    between atoms: C_7  and  C_9 
REMARK    8  A    between atoms: C_8  and  C_12 
REMARK    9  A    between atoms: C_9  and  C_17 
REMARK   10  A    between atoms: C_10  and  C_11 
REMARK   11  A    between atoms: C_10  and  C_13 
REMARK   12  A    between atoms: C_11  and  C_14 
REMARK   13  A    between atoms: C_13  and  C_18 
REMARK   14  A    between atoms: C_15  and  C_16 
REMARK   15  A    between atoms: C_16  and  C_19 
ROOT
ATOM      1  C   UNL d   1       3.095  -2.911   0.235  0.00  0.00     0.027 C 
ENDROOT
BRANCH   1   2
ATOM      2  C   UNL d   1       1.645  -3.357   0.431  0.00  0.00     0.004 C 
BRANCH   2   3
ATOM      3  C   UNL d   1       0.646  -2.196   0.455  0.00  0.00     0.000 C 
BRANCH   3   4
ATOM      4  C   UNL d   1      -0.778  -2.704   0.688  0.00  0.00     0.000 C 
BRANCH   4   5
ATOM      5  C   UNL d   1      -1.787  -1.555   0.667  0.00  0.00     0.000 C 
BRANCH   5   6
ATOM      6  C   UNL d   1      -3.217  -2.071   0.847  0.00  0.00     0.010 C 
BRANCH   6   7
ATOM      7  C   UNL d   1      -4.254  -0.950   0.822  0.00  0.00     0.111 C 
BRANCH   7   8
ATOM      8  C   UNL d   1      -4.340  -0.240  -0.512  0.00  0.00     0.258 C 
ATOM      9  O   UNL d   1      -4.071  -0.736  -1.598  0.00  0.00    -0.265 OA
BRANCH   8  10
ATOM     10  O   UNL d   1      -4.796   1.028  -0.320  0.00  0.00    -0.326 OA
ATOM     11  C   UNL d   1      -4.916   1.803  -1.513  0.00  0.00     0.213 C 
ENDBRANCH   8  10
ENDBRANCH   7   8
ENDBRANCH   6   7
ENDBRANCH   5   6
ENDBRANCH   4   5
ENDBRANCH   3   4
ENDBRANCH   2   3
ENDBRANCH   1   2
BRANCH   1  12
ATOM     12  C   UNL d   1       3.327  -2.217  -1.081  0.00  0.00    -0.030 C 
ATOM     13  C   UNL d   1       3.828  -0.979  -1.226  0.00  0.00    -0.027 C 
BRANCH  13  14
ATOM     14  C   UNL d   1       4.231  -0.107  -0.073  0.00  0.00     0.053 C 
BRANCH  14  15
ATOM     15  C   UNL d   1       4.730   1.237  -0.515  0.00  0.00    -0.027 C 
ATOM     16  C   UNL d   1       4.196   2.420  -0.164  0.00  0.00    -0.030 C 
BRANCH  16  17
ATOM     17  C   UNL d   1       3.015   2.603   0.748  0.00  0.00     0.027 C 
BRANCH  17  18
ATOM     18  C   UNL d   1       1.700   2.572  -0.030  0.00  0.00     0.004 C 
BRANCH  18  19
ATOM     19  C   UNL d   1       0.500   2.686   0.913  0.00  0.00    -0.000 C 
BRANCH  19  20
ATOM     20  C   UNL d   1      -0.820   2.744   0.143  0.00  0.00    -0.005 C 
ATOM     21  C   UNL d   1      -2.005   2.929   1.078  0.00  0.00     0.005 C 
ENDBRANCH  19  20
ENDBRANCH  18  19
ENDBRANCH  17  18
ENDBRANCH  16  17
ENDBRANCH  14  15
ENDBRANCH  13  14
ENDBRANCH   1  12
TORSDOF 15
