REMARK  3 active torsions:
REMARK  status: ('A' for Active; 'I' for Inactive)
REMARK    1  A    between atoms: O_1  and  C_11 
REMARK    2  A    between atoms: O_1  and  C_29 
REMARK    3  A    between atoms: C_17  and  C_28 
ROOT
ATOM      1  O   UNL d   1      -4.325  -2.179  -1.093  0.00  0.00    -0.292 OA
ATOM      2  O   UNL d   1       5.929   1.566   1.476  0.00  0.00    -0.292 OA
ATOM      3  C   UNL d   1       0.133  -0.284  -1.111  0.00  0.00     0.012 C 
ATOM      4  C   UNL d   1       0.646   0.977  -0.315  0.00  0.00     0.013 C 
ATOM      5  C   UNL d   1       2.195   1.304  -0.482  0.00  0.00    -0.017 C 
ATOM      6  C   UNL d   1       2.982  -0.000  -0.098  0.00  0.00     0.016 C 
ATOM      7  C   UNL d   1      -2.225   0.523  -0.132  0.00  0.00    -0.005 C 
ATOM      8  C   UNL d   1       1.046  -1.516  -0.774  0.00  0.00     0.145 C 
ATOM      9  C   UNL d   1      -1.343  -0.555  -0.761  0.00  0.00    -0.056 C 
ATOM     10  C   UNL d   1      -0.296   2.208  -0.440  0.00  0.00     0.008 C 
ATOM     11  C   UNL d   1       2.543  -1.187  -0.988  0.00  0.00     0.040 C 
ATOM     12  C   UNL d   1      -1.784   1.895  -0.659  0.00  0.00     0.015 C 
ATOM     13  C   UNL d   1       4.526   0.151   0.081  0.00  0.00     0.022 C 
ATOM     14  C   UNL d   1      -3.648   0.141  -0.651  0.00  0.00     0.107 C 
ATOM     15  C   UNL d   1       0.142  -0.055  -2.647  0.00  0.00     0.023 C 
ATOM     16  C   UNL d   1       2.549   1.846  -1.884  0.00  0.00     0.020 C 
ATOM     17  C   UNL d   1       2.619   2.392   0.496  0.00  0.00    -0.013 C 
ATOM     18  C   UNL d   1      -2.028  -1.659  -1.095  0.00  0.00     0.055 C 
ATOM     19  C   UNL d   1      -2.153   0.456   1.412  0.00  0.00     0.021 C 
ATOM     20  C   UNL d   1      -3.458  -1.339  -0.914  0.00  0.00     0.159 C 
ATOM     21  C   UNL d   1       4.832   1.383   0.949  0.00  0.00     0.157 C 
ATOM     22  C   UNL d   1       3.792   2.421   1.141  0.00  0.00     0.048 C 
ATOM     23  C   UNL d   1       5.085  -1.074   0.850  0.00  0.00     0.024 C 
ATOM     24  C   UNL d   1       5.310   0.276  -1.231  0.00  0.00     0.024 C 
ENDROOT
BRANCH  14  25
ATOM     25  C   UNL d   1      -4.820   0.507   0.210  0.00  0.00    -0.021 A 
ATOM     26  C   UNL d   1      -5.272   1.827   0.523  0.00  0.00     0.034 A 
ATOM     27  C   UNL d   1      -6.379   1.690   1.326  0.00  0.00     0.142 A 
ATOM     28  O   UNL d   1      -6.656   0.378   1.525  0.00  0.00    -0.334 OA
ATOM     29  C   UNL d   1      -5.721  -0.330   0.844  0.00  0.00     0.149 A 
ENDBRANCH  14  25
BRANCH   8  30
ATOM     30  O   UNL d   1       0.880  -1.850   0.629  0.00  0.00    -0.315 OA
BRANCH  30  31
ATOM     31  C   UNL d   1       1.468  -3.008   1.040  0.00  0.00     0.255 C 
ATOM     32  O   UNL d   1       1.817  -3.925   0.311  0.00  0.00    -0.266 OA
ATOM     33  C   UNL d   1       1.733  -2.946   2.514  0.00  0.00     0.126 C 
ENDBRANCH  30  31
ENDBRANCH   8  30
TORSDOF 3
