REMARK  0 active torsions:
REMARK  status: ('A' for Active; 'I' for Inactive)
ROOT
ATOM      1  C   UNL d   1      -2.601   0.239   0.073  0.00  0.00    -0.036 A 
ATOM      2  C   UNL d   1      -1.566  -0.758  -0.447  0.00  0.00     0.002 A 
ATOM      3  C   UNL d   1      -1.289   0.750  -0.496  0.00  0.00     0.021 A 
ATOM      4  C   UNL d   1      -0.956  -1.757   0.515  0.00  0.00     0.010 C 
ATOM      5  C   UNL d   1      -2.893   0.361   1.552  0.00  0.00     0.016 C 
ATOM      6  C   UNL d   1      -3.841   0.435  -0.768  0.00  0.00     0.016 C 
ATOM      7  C   UNL d   1      -0.182   1.249   0.324  0.00  0.00    -0.019 C 
ATOM      8  C   UNL d   1       0.316  -2.472   0.018  0.00  0.00     0.034 C 
ATOM      9  C   UNL d   1       1.015   1.720  -0.084  0.00  0.00    -0.087 C 
ATOM     10  C   UNL d   1       1.524  -1.569  -0.157  0.00  0.00    -0.087 C 
ATOM     11  C   UNL d   1       2.172   1.681   0.904  0.00  0.00     0.037 C 
ATOM     12  C   UNL d   1       2.943   0.335   0.823  0.00  0.00     0.031 C 
ATOM     13  C   UNL d   1       1.374   2.094  -1.494  0.00  0.00     0.043 C 
ATOM     14  C   UNL d   1       2.008  -0.854   0.884  0.00  0.00    -0.024 C 
ATOM     15  C   UNL d   1       2.008  -1.466  -1.577  0.00  0.00     0.043 C 
ENDROOT
TORSDOF 0
