REMARK  5 active torsions:
REMARK  status: ('A' for Active; 'I' for Inactive)
REMARK    1  A    between atoms: O_1  and  C_10 
REMARK    2  A    between atoms: O_2  and  C_8 
REMARK    3  A    between atoms: O_3  and  C_9 
REMARK    4  A    between atoms: C_4  and  C_5 
REMARK    5  A    between atoms: C_5  and  C_11 
ROOT
ATOM      1  C   UNL d   1      -1.315  -0.396   0.588  0.00  0.00    -0.049 A 
ATOM      2  C   UNL d   1      -0.332  -1.392   0.562  0.00  0.00     0.047 A 
ATOM      3  C   UNL d   1      -0.958   0.926   0.269  0.00  0.00     0.047 A 
ATOM      4  C   UNL d   1       0.364   1.262  -0.048  0.00  0.00     0.104 A 
ATOM      5  C   UNL d   1       0.984  -1.072   0.225  0.00  0.00     0.104 A 
ATOM      6  C   UNL d   1       1.346   0.254  -0.053  0.00  0.00     0.135 A 
ENDROOT
BRANCH   1   7
ATOM      7  C   UNL d   1      -2.749  -0.739   0.915  0.00  0.00     0.065 C 
BRANCH   7   8
ATOM      8  C   UNL d   1      -3.562  -1.014  -0.319  0.00  0.00    -0.032 C 
ATOM      9  C   UNL d   1      -4.615  -0.285  -0.710  0.00  0.00     0.007 C 
ENDBRANCH   7   8
ENDBRANCH   1   7
BRANCH   5  10
ATOM     10  O   UNL d   1       1.901  -2.091   0.225  0.00  0.00    -0.353 OA
ATOM     11  C   UNL d   1       2.037  -2.629  -1.090  0.00  0.00     0.210 C 
ENDBRANCH   5  10
BRANCH   4  12
ATOM     12  O   UNL d   1       0.794   2.530  -0.349  0.00  0.00    -0.353 OA
ATOM     13  C   UNL d   1      -0.164   3.577  -0.290  0.00  0.00     0.210 C 
ENDBRANCH   4  12
BRANCH   6  14
ATOM     14  O   UNL d   1       2.626   0.611  -0.404  0.00  0.00    -0.351 OA
ATOM     15  C   UNL d   1       3.584   0.276   0.597  0.00  0.00     0.210 C 
ENDBRANCH   6  14
TORSDOF 5
