REMARK  5 active torsions:
REMARK  status: ('A' for Active; 'I' for Inactive)
REMARK    1  A    between atoms: O_1  and  C_11 
REMARK    2  A    between atoms: C_2  and  C_3 
REMARK    3  A    between atoms: C_2  and  C_4 
REMARK    4  A    between atoms: C_3  and  C_5 
REMARK    5  A    between atoms: C_8  and  C_11 
ROOT
ATOM      1  C   UNL d   1       0.065   0.625   0.627  0.00  0.00     0.037 C 
ENDROOT
BRANCH   1   2
ATOM      2  C   UNL d   1      -0.927   0.737  -0.539  0.00  0.00     0.031 C 
BRANCH   2   3
ATOM      3  C   UNL d   1      -2.359   0.708  -0.067  0.00  0.00    -0.024 C 
ATOM      4  C   UNL d   1      -3.192  -0.349  -0.037  0.00  0.00    -0.091 C 
ATOM      5  C   UNL d   1      -4.616  -0.197   0.433  0.00  0.00     0.042 C 
ATOM      6  C   UNL d   1      -2.819  -1.751  -0.435  0.00  0.00     0.042 C 
ENDBRANCH   2   3
ENDBRANCH   1   2
BRANCH   1   7
ATOM      7  C   UNL d   1       1.521   0.687   0.189  0.00  0.00    -0.085 C 
ATOM      8  C   UNL d   1       1.943   1.974  -0.472  0.00  0.00     0.043 C 
ATOM      9  C   UNL d   1       2.372  -0.329   0.436  0.00  0.00     0.001 C 
BRANCH   9  10
ATOM     10  C   UNL d   1       3.822  -0.380   0.060  0.00  0.00     0.191 C 
BRANCH  10  11
ATOM     11  O   UNL d   1       4.193  -1.731  -0.177  0.00  0.00    -0.397 OA
ATOM     12  H   UNL d   1       4.149  -2.190   0.677  0.00  0.00     0.209 HD
ENDBRANCH  10  11
ENDBRANCH   9  10
ENDBRANCH   1   7
TORSDOF 5
