REMARK  16 active torsions:
REMARK  status: ('A' for Active; 'I' for Inactive)
REMARK    1  A    between atoms: O_1  and  C_10 
REMARK    2  A    between atoms: O_1  and  C_16 
REMARK    3  A    between atoms: O_2  and  C_11 
REMARK    4  A    between atoms: O_3  and  C_13 
REMARK    5  A    between atoms: O_4  and  C_17 
REMARK    6  A    between atoms: O_5  and  C_19 
REMARK    7  A    between atoms: O_6  and  C_20 
REMARK    8  A    between atoms: O_8  and  C_37 
REMARK    9  A    between atoms: N_9  and  C_26 
REMARK       I    between atoms: N_9  and  C_32 
REMARK   10  A    between atoms: C_10  and  C_11 
REMARK   11  A    between atoms: C_10  and  C_13 
REMARK   12  A    between atoms: C_11  and  C_12 
REMARK   13  A    between atoms: C_22  and  C_28 
REMARK   14  A    between atoms: C_25  and  C_26 
REMARK   15  A    between atoms: C_25  and  C_27 
REMARK   16  A    between atoms: C_29  and  C_32 
ROOT
ATOM      1  C   UNL d   1      -1.548  -1.123  -0.115  0.00  0.00     0.102 A 
ATOM      2  C   UNL d   1      -1.216  -2.439   0.235  0.00  0.00     0.102 A 
ATOM      3  C   UNL d   1      -0.523  -0.196  -0.300  0.00  0.00     0.040 A 
ATOM      4  C   UNL d   1       1.155  -1.909   0.062  0.00  0.00    -0.033 A 
ATOM      5  C   UNL d   1       0.127  -2.832   0.308  0.00  0.00     0.051 A 
ATOM      6  C   UNL d   1       0.808  -0.584  -0.229  0.00  0.00     0.014 A 
ENDROOT
BRANCH   1   7
ATOM      7  O   UNL d   1      -2.871  -0.793  -0.227  0.00  0.00    -0.338 OA
BRANCH   7   8
ATOM      8  C   UNL d   1      -3.173   0.257  -1.168  0.00  0.00     0.185 C 
BRANCH   8   9
ATOM      9  C   UNL d   1      -3.700   1.494  -0.407  0.00  0.00     0.182 C 
BRANCH   9  10
ATOM     10  O   UNL d   1      -3.824   2.610  -1.300  0.00  0.00    -0.388 OA
ATOM     11  H   UNL d   1      -2.938   2.808  -1.647  0.00  0.00     0.210 HD
ENDBRANCH   9  10
BRANCH   9  12
ATOM     12  C   UNL d   1      -5.026   1.271   0.288  0.00  0.00    -0.024 A 
ATOM     13  C   UNL d   1      -6.220   1.475  -0.415  0.00  0.00     0.049 A 
ATOM     14  C   UNL d   1      -7.466   1.258   0.172  0.00  0.00     0.101 A 
ATOM     15  C   UNL d   1      -7.507   0.829   1.504  0.00  0.00     0.099 A 
ATOM     16  C   UNL d   1      -6.328   0.615   2.226  0.00  0.00     0.040 A 
ATOM     17  C   UNL d   1      -5.091   0.832   1.615  0.00  0.00     0.013 A 
BRANCH  14  18
ATOM     18  O   UNL d   1      -8.653   1.441  -0.491  0.00  0.00    -0.353 OA
ATOM     19  C   UNL d   1      -8.550   1.877  -1.845  0.00  0.00     0.210 C 
ENDBRANCH  14  18
BRANCH  15  20
ATOM     20  O   UNL d   1      -8.716   0.610   2.107  0.00  0.00    -0.358 OA
ATOM     21  H   UNL d   1      -8.563   0.327   3.022  0.00  0.00     0.217 HD
ENDBRANCH  15  20
ENDBRANCH   9  12
ENDBRANCH   8   9
BRANCH   8  22
ATOM     22  C   UNL d   1      -4.120  -0.283  -2.244  0.00  0.00     0.199 C 
BRANCH  22  23
ATOM     23  O   UNL d   1      -3.452  -1.310  -2.983  0.00  0.00    -0.398 OA
ATOM     24  H   UNL d   1      -4.107  -1.709  -3.577  0.00  0.00     0.209 HD
ENDBRANCH  22  23
ENDBRANCH   8  22
ENDBRANCH   7   8
ENDBRANCH   1   7
BRANCH   2  25
ATOM     25  O   UNL d   1      -2.183  -3.403   0.378  0.00  0.00    -0.353 OA
ATOM     26  C   UNL d   1      -2.627  -3.499   1.730  0.00  0.00     0.210 C 
ENDBRANCH   2  25
BRANCH   4  27
ATOM     27  C   UNL d   1       2.562  -2.321   0.160  0.00  0.00     0.017 C 
ATOM     28  C   UNL d   1       3.584  -1.656  -0.407  0.00  0.00     0.075 C 
BRANCH  28  29
ATOM     29  C   UNL d   1       4.980  -2.123  -0.238  0.00  0.00     0.241 C 
ATOM     30  O   UNL d   1       5.283  -3.101   0.431  0.00  0.00    -0.269 OA
ATOM     31  N   UNL d   1       5.883  -1.323  -0.904  0.00  0.00    -0.357 N 
ATOM     32  H   UNL d   1       5.569  -0.478  -1.356  0.00  0.00     0.162 HD
BRANCH  31  33
ATOM     33  C   UNL d   1       7.309  -1.555  -0.849  0.00  0.00     0.127 C 
BRANCH  33  34
ATOM     34  C   UNL d   1       7.997  -0.882   0.343  0.00  0.00     0.058 C 
BRANCH  34  35
ATOM     35  C   UNL d   1       7.827   0.621   0.354  0.00  0.00    -0.057 A 
ATOM     36  C   UNL d   1       6.740   1.197   1.026  0.00  0.00     0.010 A 
ATOM     37  C   UNL d   1       6.559   2.581   1.032  0.00  0.00     0.037 A 
ATOM     38  C   UNL d   1       7.473   3.391   0.363  0.00  0.00     0.065 A 
ATOM     39  C   UNL d   1       8.556   2.838  -0.310  0.00  0.00     0.037 A 
ATOM     40  C   UNL d   1       8.733   1.453  -0.319  0.00  0.00     0.010 A 
BRANCH  38  41
ATOM     41  O   UNL d   1       7.330   4.747   0.348  0.00  0.00    -0.361 OA
ATOM     42  H   UNL d   1       6.550   4.979   0.876  0.00  0.00     0.217 HD
ENDBRANCH  38  41
ENDBRANCH  34  35
ENDBRANCH  33  34
ENDBRANCH  31  33
ENDBRANCH  28  29
ENDBRANCH   4  27
TORSDOF 16
