REMARK  11 active torsions:
REMARK  status: ('A' for Active; 'I' for Inactive)
REMARK    1  A    between atoms: O_2  and  C_16 
REMARK    2  A    between atoms: O_2  and  C_18 
REMARK    3  A    between atoms: O_3  and  C_12 
REMARK    4  A    between atoms: O_4  and  C_13 
REMARK    5  A    between atoms: O_5  and  C_14 
REMARK    6  A    between atoms: O_6  and  C_17 
REMARK    7  A    between atoms: O_9  and  C_24 
REMARK    8  A    between atoms: O_10  and  C_29 
REMARK    9  A    between atoms: O_11  and  C_32 
REMARK   10  A    between atoms: C_15  and  C_17 
REMARK   11  A    between atoms: C_19  and  C_23 
ROOT
ATOM      1  O   UNL d   1      -1.995  -1.618   0.319  0.00  0.00    -0.306 OA
ATOM      2  O   UNL d   1      -1.205   1.868  -1.632  0.00  0.00    -0.284 OA
ATOM      3  C   UNL d   1      -0.381  -0.232  -0.828  0.00  0.00     0.157 A 
ATOM      4  C   UNL d   1      -0.739  -1.355  -0.190  0.00  0.00     0.123 A 
ATOM      5  C   UNL d   1      -1.421   0.815  -1.042  0.00  0.00     0.223 A 
ATOM      6  C   UNL d   1      -2.755   0.541  -0.495  0.00  0.00     0.084 A 
ATOM      7  C   UNL d   1      -2.973  -0.672   0.157  0.00  0.00     0.096 A 
ATOM      8  C   UNL d   1      -3.800   1.464  -0.614  0.00  0.00     0.085 A 
ATOM      9  C   UNL d   1      -4.228  -0.974   0.683  0.00  0.00     0.075 A 
ATOM     10  C   UNL d   1      -5.055   1.168  -0.090  0.00  0.00     0.074 A 
ATOM     11  C   UNL d   1      -5.260  -0.050   0.552  0.00  0.00     0.071 A 
ENDROOT
BRANCH   3  12
ATOM     12  O   UNL d   1       0.885  -0.016  -1.345  0.00  0.00    -0.311 OA
BRANCH  12  13
ATOM     13  C   UNL d   1       1.718   0.662  -0.385  0.00  0.00     0.298 C 
ATOM     14  O   UNL d   1       1.155   1.910   0.005  0.00  0.00    -0.348 OA
ATOM     15  C   UNL d   1       1.947   2.578   0.989  0.00  0.00     0.179 C 
ATOM     16  C   UNL d   1       3.313   2.945   0.403  0.00  0.00     0.180 C 
ATOM     17  C   UNL d   1       4.014   1.690  -0.153  0.00  0.00     0.183 C 
ATOM     18  C   UNL d   1       3.087   0.858  -1.052  0.00  0.00     0.205 C 
BRANCH  15  19
ATOM     19  C   UNL d   1       1.163   3.821   1.416  0.00  0.00     0.198 C 
BRANCH  19  20
ATOM     20  O   UNL d   1      -0.106   3.428   1.938  0.00  0.00    -0.398 OA
ATOM     21  H   UNL d   1      -0.538   2.928   1.219  0.00  0.00     0.209 HD
ENDBRANCH  19  20
ENDBRANCH  15  19
BRANCH  16  22
ATOM     22  O   UNL d   1       4.136   3.543   1.406  0.00  0.00    -0.390 OA
ATOM     23  H   UNL d   1       3.844   4.461   1.542  0.00  0.00     0.210 HD
ENDBRANCH  16  22
BRANCH  17  24
ATOM     24  O   UNL d   1       5.185   2.087  -0.893  0.00  0.00    -0.390 OA
ATOM     25  H   UNL d   1       4.900   2.615  -1.656  0.00  0.00     0.210 HD
ENDBRANCH  17  24
BRANCH  18  26
ATOM     26  O   UNL d   1       3.690  -0.419  -1.320  0.00  0.00    -0.388 OA
ATOM     27  H   UNL d   1       3.049  -0.933  -1.847  0.00  0.00     0.210 HD
ENDBRANCH  18  26
ENDBRANCH  12  13
ENDBRANCH   3  12
BRANCH   4  28
ATOM     28  C   UNL d   1       0.215  -2.447   0.050  0.00  0.00     0.001 A 
ATOM     29  C   UNL d   1       0.991  -2.467   1.219  0.00  0.00     0.017 A 
ATOM     30  C   UNL d   1       1.912  -3.493   1.439  0.00  0.00     0.037 A 
ATOM     31  C   UNL d   1       2.039  -4.507   0.496  0.00  0.00     0.065 A 
ATOM     32  C   UNL d   1       1.271  -4.507  -0.663  0.00  0.00     0.037 A 
ATOM     33  C   UNL d   1       0.360  -3.474  -0.889  0.00  0.00     0.017 A 
BRANCH  31  34
ATOM     34  O   UNL d   1       2.914  -5.535   0.682  0.00  0.00    -0.361 OA
ATOM     35  H   UNL d   1       3.383  -5.397   1.522  0.00  0.00     0.217 HD
ENDBRANCH  31  34
ENDBRANCH   4  28
BRANCH   8  36
ATOM     36  O   UNL d   1      -3.654   2.679  -1.229  0.00  0.00    -0.360 OA
ATOM     37  H   UNL d   1      -2.730   2.753  -1.557  0.00  0.00     0.217 HD
ENDBRANCH   8  36
BRANCH  11  38
ATOM     38  O   UNL d   1      -6.503  -0.305   1.052  0.00  0.00    -0.361 OA
ATOM     39  H   UNL d   1      -6.505  -1.185   1.470  0.00  0.00     0.217 HD
ENDBRANCH  11  38
TORSDOF 11
