REMARK  5 active torsions:
REMARK  status: ('A' for Active; 'I' for Inactive)
REMARK    1  A    between atoms: O_2  and  C_11 
REMARK    2  A    between atoms: O_3  and  C_13 
REMARK    3  A    between atoms: O_5  and  C_15 
REMARK    4  A    between atoms: O_6  and  C_21 
REMARK    5  A    between atoms: C_9  and  C_12 
ROOT
ATOM      1  O   UNL d   1      -0.118  -0.890   0.003  0.00  0.00    -0.306 OA
ATOM      2  O   UNL d   1      -1.802   2.816   0.002  0.00  0.00    -0.284 OA
ATOM      3  C   UNL d   1      -2.107   0.501   0.001  0.00  0.00     0.084 A 
ATOM      4  C   UNL d   1      -1.481  -0.743   0.001  0.00  0.00     0.096 A 
ATOM      5  C   UNL d   1       0.667   0.248   0.000  0.00  0.00     0.123 A 
ATOM      6  C   UNL d   1      -1.271   1.708   0.000  0.00  0.00     0.223 A 
ATOM      7  C   UNL d   1       0.204   1.513  -0.003  0.00  0.00     0.152 A 
ATOM      8  C   UNL d   1      -3.505   0.577   0.002  0.00  0.00     0.085 A 
ATOM      9  C   UNL d   1      -2.245  -1.910   0.001  0.00  0.00     0.075 A 
ATOM     10  C   UNL d   1      -3.635  -1.821   0.001  0.00  0.00     0.071 A 
ATOM     11  C   UNL d   1      -4.274  -0.585   0.002  0.00  0.00     0.074 A 
ENDROOT
BRANCH   5  12
ATOM     12  C   UNL d   1       2.104  -0.055   0.004  0.00  0.00     0.001 A 
ATOM     13  C   UNL d   1       2.796  -0.178   1.216  0.00  0.00     0.017 A 
ATOM     14  C   UNL d   1       4.167  -0.447   1.221  0.00  0.00     0.037 A 
ATOM     15  C   UNL d   1       4.839  -0.590   0.011  0.00  0.00     0.065 A 
ATOM     16  C   UNL d   1       4.165  -0.468  -1.199  0.00  0.00     0.037 A 
ATOM     17  C   UNL d   1       2.796  -0.200  -1.205  0.00  0.00     0.017 A 
BRANCH  15  18
ATOM     18  O   UNL d   1       6.175  -0.853  -0.032  0.00  0.00    -0.361 OA
ATOM     19  H   UNL d   1       6.509  -0.934   0.877  0.00  0.00     0.217 HD
ENDBRANCH  15  18
ENDBRANCH   5  12
BRANCH   7  20
ATOM     20  O   UNL d   1       1.002   2.644  -0.006  0.00  0.00    -0.355 OA
ATOM     21  H   UNL d   1       1.937   2.378  -0.026  0.00  0.00     0.218 HD
ENDBRANCH   7  20
BRANCH   8  22
ATOM     22  O   UNL d   1      -4.188   1.764   0.003  0.00  0.00    -0.360 OA
ATOM     23  H   UNL d   1      -3.528   2.496   0.003  0.00  0.00     0.217 HD
ENDBRANCH   8  22
BRANCH  10  24
ATOM     24  O   UNL d   1      -4.345  -2.985   0.001  0.00  0.00    -0.361 OA
ATOM     25  H   UNL d   1      -5.294  -2.773  -0.002  0.00  0.00     0.217 HD
ENDBRANCH  10  24
TORSDOF 5
