REMARK  2 active torsions:
REMARK  status: ('A' for Active; 'I' for Inactive)
REMARK    1  A    between atoms: O_3  and  C_18 
REMARK    2  A    between atoms: O_4  and  C_22 
ROOT
ATOM      1  O   UNL d   1       5.383  -1.679  -0.163  0.00  0.00    -0.323 OA
ATOM      2  O   UNL d   1       6.187   0.584   0.004  0.00  0.00    -0.323 OA
ATOM      3  N   UNL d   1      -0.095  -1.407  -0.146  0.00  0.00    -0.359 N 
ATOM      4  C   UNL d   1       0.566  -0.196  -0.046  0.00  0.00     0.056 A 
ATOM      5  C   UNL d   1      -0.282   0.975   0.054  0.00  0.00     0.003 A 
ATOM      6  C   UNL d   1       2.029  -0.042  -0.036  0.00  0.00     0.005 A 
ATOM      7  C   UNL d   1      -1.715   0.873   0.066  0.00  0.00    -0.009 A 
ATOM      8  C   UNL d   1      -2.283  -0.400  -0.037  0.00  0.00     0.027 A 
ATOM      9  C   UNL d   1       2.566   1.286   0.064  0.00  0.00    -0.021 A 
ATOM     10  C   UNL d   1      -1.442  -1.486  -0.162  0.00  0.00     0.106 A 
ATOM     11  C   UNL d   1       0.339   2.231   0.145  0.00  0.00     0.015 A 
ATOM     12  C   UNL d   1       3.031  -1.063  -0.116  0.00  0.00     0.054 A 
ATOM     13  C   UNL d   1       1.720   2.381   0.149  0.00  0.00     0.013 A 
ATOM     14  C   UNL d   1       3.950   1.555   0.082  0.00  0.00     0.052 A 
ATOM     15  C   UNL d   1       4.380  -0.765  -0.094  0.00  0.00     0.105 A 
ATOM     16  C   UNL d   1      -3.683  -0.591  -0.002  0.00  0.00     0.114 A 
ATOM     17  C   UNL d   1      -2.635   1.957   0.181  0.00  0.00     0.016 A 
ATOM     18  C   UNL d   1       4.834   0.511   0.001  0.00  0.00     0.105 A 
ATOM     19  C   UNL d   1       0.578  -2.717  -0.224  0.00  0.00     0.156 C 
ATOM     20  C   UNL d   1      -4.549   0.496   0.080  0.00  0.00     0.102 A 
ATOM     21  C   UNL d   1      -4.024   1.774   0.193  0.00  0.00     0.040 A 
ATOM     22  C   UNL d   1       6.539  -0.813  -0.103  0.00  0.00     0.352 A 
ENDROOT
BRANCH  16  23
ATOM     23  O   UNL d   1      -4.182  -1.867  -0.126  0.00  0.00    -0.352 OA
ATOM     24  C   UNL d   1      -4.534  -2.403   1.154  0.00  0.00     0.210 C 
ENDBRANCH  16  23
BRANCH  20  25
ATOM     25  O   UNL d   1      -5.902   0.331   0.143  0.00  0.00    -0.353 OA
ATOM     26  C   UNL d   1      -6.462   0.262  -1.170  0.00  0.00     0.210 C 
ENDBRANCH  20  25
TORSDOF 2
