REMARK  16 active torsions:
REMARK  status: ('A' for Active; 'I' for Inactive)
REMARK    1  A    between atoms: O_1  and  C_21 
REMARK    2  A    between atoms: C_3  and  C_6 
REMARK    3  A    between atoms: C_4  and  C_7 
REMARK    4  A    between atoms: C_6  and  C_8 
REMARK    5  A    between atoms: C_7  and  C_9 
REMARK    6  A    between atoms: C_8  and  C_10 
REMARK    7  A    between atoms: C_9  and  C_11 
REMARK    8  A    between atoms: C_10  and  C_12 
REMARK    9  A    between atoms: C_11  and  C_13 
REMARK   10  A    between atoms: C_12  and  C_14 
REMARK   11  A    between atoms: C_13  and  C_15 
REMARK   12  A    between atoms: C_14  and  C_16 
REMARK   13  A    between atoms: C_15  and  C_17 
REMARK   14  A    between atoms: C_16  and  C_18 
REMARK   15  A    between atoms: C_17  and  C_19 
REMARK   16  A    between atoms: C_19  and  C_21 
ROOT
ATOM      1  C   UNL d   1       2.474  -3.650  -0.076  0.00  0.00    -0.073 A 
ATOM      2  C   UNL d   1       1.251  -4.072  -0.006  0.00  0.00    -0.073 A 
ATOM      3  C   UNL d   1       2.277  -5.081  -0.077  0.00  0.00     0.068 A 
ENDROOT
BRANCH   2   4
ATOM      4  C   UNL d   1      -0.191  -3.946   0.078  0.00  0.00     0.034 C 
BRANCH   4   5
ATOM      5  C   UNL d   1      -0.637  -2.478   0.061  0.00  0.00     0.004 C 
BRANCH   5   6
ATOM      6  C   UNL d   1      -2.160  -2.331   0.159  0.00  0.00     0.000 C 
BRANCH   6   7
ATOM      7  C   UNL d   1      -2.595  -0.862   0.073  0.00  0.00     0.000 C 
BRANCH   7   8
ATOM      8  C   UNL d   1      -4.119  -0.725   0.150  0.00  0.00     0.001 C 
BRANCH   8   9
ATOM      9  C   UNL d   1      -4.568   0.735   0.024  0.00  0.00     0.010 C 
BRANCH   9  10
ATOM     10  C   UNL d   1      -6.090   0.853   0.071  0.00  0.00     0.110 C 
BRANCH  10  11
ATOM     11  C   UNL d   1      -6.570   2.275  -0.084  0.00  0.00     0.139 C 
ATOM     12  O   UNL d   1      -5.898   3.274  -0.251  0.00  0.00    -0.650 OA
BRANCH  11  13
ATOM     13  O   UNL d   1      -7.917   2.341  -0.020  0.00  0.00    -0.776 OA
ATOM     14  H   UNL d   1      -8.126   3.293  -0.134  0.00  0.00     0.167 HD
ENDBRANCH  11  13
ENDBRANCH  10  11
ENDBRANCH   9  10
ENDBRANCH   8   9
ENDBRANCH   7   8
ENDBRANCH   6   7
ENDBRANCH   5   6
ENDBRANCH   4   5
ENDBRANCH   2   4
BRANCH   1  15
ATOM     15  C   UNL d   1       3.554  -2.685  -0.130  0.00  0.00     0.034 C 
BRANCH  15  16
ATOM     16  C   UNL d   1       3.073  -1.231  -0.037  0.00  0.00     0.004 C 
BRANCH  16  17
ATOM     17  C   UNL d   1       4.244  -0.236  -0.067  0.00  0.00     0.000 C 
BRANCH  17  18
ATOM     18  C   UNL d   1       3.750   1.215   0.001  0.00  0.00     0.000 C 
BRANCH  18  19
ATOM     19  C   UNL d   1       4.906   2.223  -0.033  0.00  0.00     0.000 C 
BRANCH  19  20
ATOM     20  C   UNL d   1       4.406   3.672   0.013  0.00  0.00    -0.000 C 
BRANCH  20  21
ATOM     21  C   UNL d   1       5.572   4.663   0.042  0.00  0.00    -0.005 C 
ATOM     22  C   UNL d   1       5.091   6.105   0.119  0.00  0.00     0.005 C 
ENDBRANCH  20  21
ENDBRANCH  19  20
ENDBRANCH  18  19
ENDBRANCH  17  18
ENDBRANCH  16  17
ENDBRANCH  15  16
ENDBRANCH   1  15
TORSDOF 16
