REMARK  9 active torsions:
REMARK  status: ('A' for Active; 'I' for Inactive)
REMARK    1  A    between atoms: O_2  and  C_15 
REMARK    2  A    between atoms: O_2  and  C_17 
REMARK    3  A    between atoms: O_3  and  C_11 
REMARK    4  A    between atoms: O_4  and  C_12 
REMARK    5  A    between atoms: O_5  and  C_13 
REMARK    6  A    between atoms: O_8  and  C_23 
REMARK    7  A    between atoms: O_9  and  C_28 
REMARK    8  A    between atoms: O_10  and  C_31 
REMARK    9  A    between atoms: C_18  and  C_22 
ROOT
ATOM      1  O   UNL d   1      -2.120  -1.528   0.042  0.00  0.00    -0.306 OA
ATOM      2  O   UNL d   1      -1.010   2.329  -0.684  0.00  0.00    -0.284 OA
ATOM      3  C   UNL d   1      -0.365   0.083  -0.366  0.00  0.00     0.157 A 
ATOM      4  C   UNL d   1      -0.803  -1.173  -0.164  0.00  0.00     0.123 A 
ATOM      5  C   UNL d   1      -1.365   1.185  -0.427  0.00  0.00     0.223 A 
ATOM      6  C   UNL d   1      -2.776   0.809  -0.184  0.00  0.00     0.084 A 
ATOM      7  C   UNL d   1      -3.071  -0.539   0.033  0.00  0.00     0.096 A 
ATOM      8  C   UNL d   1      -3.820   1.746  -0.172  0.00  0.00     0.085 A 
ATOM      9  C   UNL d   1      -4.388  -0.952   0.252  0.00  0.00     0.075 A 
ATOM     10  C   UNL d   1      -5.140   1.338   0.046  0.00  0.00     0.074 A 
ATOM     11  C   UNL d   1      -5.410  -0.010   0.255  0.00  0.00     0.071 A 
ENDROOT
BRANCH   3  12
ATOM     12  O   UNL d   1       0.966   0.390  -0.601  0.00  0.00    -0.311 OA
BRANCH  12  13
ATOM     13  C   UNL d   1       1.638   0.720   0.621  0.00  0.00     0.298 C 
ATOM     14  O   UNL d   1       1.494   2.087   1.008  0.00  0.00    -0.351 OA
ATOM     15  C   UNL d   1       2.076   3.011   0.085  0.00  0.00     0.152 C 
ATOM     16  C   UNL d   1       3.583   2.760  -0.093  0.00  0.00     0.178 C 
ATOM     17  C   UNL d   1       1.810   4.416   0.617  0.00  0.00     0.042 C 
ATOM     18  C   UNL d   1       3.830   1.290  -0.480  0.00  0.00     0.183 C 
ATOM     19  C   UNL d   1       3.124   0.335   0.487  0.00  0.00     0.205 C 
BRANCH  16  20
ATOM     20  O   UNL d   1       4.123   3.640  -1.087  0.00  0.00    -0.390 OA
ATOM     21  H   UNL d   1       3.720   3.409  -1.942  0.00  0.00     0.210 HD
ENDBRANCH  16  20
BRANCH  18  22
ATOM     22  O   UNL d   1       5.237   1.003  -0.483  0.00  0.00    -0.390 OA
ATOM     23  H   UNL d   1       5.521   1.082   0.449  0.00  0.00     0.210 HD
ENDBRANCH  18  22
BRANCH  19  24
ATOM     24  O   UNL d   1       3.795   0.388   1.763  0.00  0.00    -0.388 OA
ATOM     25  H   UNL d   1       3.322  -0.216   2.361  0.00  0.00     0.210 HD
ENDBRANCH  19  24
ENDBRANCH  12  13
ENDBRANCH   3  12
BRANCH   4  26
ATOM     26  C   UNL d   1       0.121  -2.317  -0.128  0.00  0.00     0.001 A 
ATOM     27  C   UNL d   1       0.717  -2.710   1.081  0.00  0.00     0.017 A 
ATOM     28  C   UNL d   1       1.612  -3.782   1.114  0.00  0.00     0.037 A 
ATOM     29  C   UNL d   1       1.898  -4.468  -0.061  0.00  0.00     0.065 A 
ATOM     30  C   UNL d   1       1.312  -4.096  -1.266  0.00  0.00     0.037 A 
ATOM     31  C   UNL d   1       0.426  -3.016  -1.302  0.00  0.00     0.017 A 
BRANCH  29  32
ATOM     32  O   UNL d   1       2.757  -5.526  -0.074  0.00  0.00    -0.361 OA
ATOM     33  H   UNL d   1       3.081  -5.682   0.829  0.00  0.00     0.217 HD
ENDBRANCH  29  32
ENDBRANCH   4  26
BRANCH   8  34
ATOM     34  O   UNL d   1      -3.572   3.072  -0.371  0.00  0.00    -0.360 OA
ATOM     35  H   UNL d   1      -4.388   3.592  -0.338  0.00  0.00     0.217 HD
ENDBRANCH   8  34
BRANCH  11  36
ATOM     36  O   UNL d   1      -6.683  -0.449   0.470  0.00  0.00    -0.361 OA
ATOM     37  H   UNL d   1      -7.295   0.304   0.442  0.00  0.00     0.217 HD
ENDBRANCH  11  36
TORSDOF 9
