REMARK  1 active torsions:
REMARK  status: ('A' for Active; 'I' for Inactive)
REMARK    1  A    between atoms: C_5  and  C_10 
ROOT
ATOM      1  N   UNL d   1      -1.703   0.521  -0.007  0.00  0.00    -0.370 N 
ATOM      2  C   UNL d   1      -0.394   0.857  -0.000  0.00  0.00     0.108 A 
ATOM      3  C   UNL d   1       0.590  -0.122   0.000  0.00  0.00     0.056 A 
ATOM      4  C   UNL d   1      -2.084  -0.775   0.001  0.00  0.00     0.090 A 
ATOM      5  C   UNL d   1       0.204  -1.464  -0.001  0.00  0.00     0.021 A 
ATOM      6  C   UNL d   1      -2.713   1.584   0.001  0.00  0.00     0.154 C 
ATOM      7  C   UNL d   1      -1.143  -1.794   0.002  0.00  0.00     0.018 A 
ENDROOT
BRANCH   3   8
ATOM      8  C   UNL d   1       2.026   0.298   0.001  0.00  0.00     0.210 C 
ATOM      9  O   UNL d   1       2.219   1.550   0.002  0.00  0.00    -0.644 OA
ATOM     10  O   UNL d   1       2.890  -0.622   0.001  0.00  0.00    -0.644 OA
ENDBRANCH   3   8
TORSDOF 1
