REMARK  15 active torsions:
REMARK  status: ('A' for Active; 'I' for Inactive)
REMARK    1  A    between atoms: O_1  and  C_18 
REMARK    2  A    between atoms: C_3  and  C_4 
REMARK    3  A    between atoms: C_3  and  C_5 
REMARK    4  A    between atoms: C_4  and  C_6 
REMARK    5  A    between atoms: C_5  and  C_7 
REMARK    6  A    between atoms: C_6  and  C_8 
REMARK    7  A    between atoms: C_7  and  C_9 
REMARK    8  A    between atoms: C_8  and  C_10 
REMARK    9  A    between atoms: C_9  and  C_11 
REMARK   10  A    between atoms: C_10  and  C_12 
REMARK   11  A    between atoms: C_11  and  C_13 
REMARK   12  A    between atoms: C_12  and  C_14 
REMARK   13  A    between atoms: C_13  and  C_15 
REMARK   14  A    between atoms: C_14  and  C_16 
REMARK   15  A    between atoms: C_16  and  C_18 
ROOT
ATOM      1  C   UNL d   1      -0.794  -0.367   0.039  0.00  0.00     0.000 C 
ENDROOT
BRANCH   1   2
ATOM      2  C   UNL d   1       0.502   0.461   0.076  0.00  0.00     0.000 C 
BRANCH   2   3
ATOM      3  C   UNL d   1       1.759  -0.427   0.056  0.00  0.00     0.000 C 
BRANCH   3   4
ATOM      4  C   UNL d   1       3.056   0.399   0.089  0.00  0.00     0.000 C 
BRANCH   4   5
ATOM      5  C   UNL d   1       4.315  -0.483   0.024  0.00  0.00     0.000 C 
BRANCH   5   6
ATOM      6  C   UNL d   1       5.605   0.350   0.085  0.00  0.00     0.000 C 
BRANCH   6   7
ATOM      7  C   UNL d   1       6.873  -0.503  -0.048  0.00  0.00     0.000 C 
BRANCH   7   8
ATOM      8  C   UNL d   1       8.148   0.357  -0.031  0.00  0.00    -0.000 C 
BRANCH   8   9
ATOM      9  C   UNL d   1       9.421  -0.493  -0.093  0.00  0.00    -0.005 C 
ATOM     10  C   UNL d   1      10.684   0.359  -0.054  0.00  0.00     0.005 C 
ENDBRANCH   8   9
ENDBRANCH   7   8
ENDBRANCH   6   7
ENDBRANCH   5   6
ENDBRANCH   4   5
ENDBRANCH   3   4
ENDBRANCH   2   3
ENDBRANCH   1   2
BRANCH   1  11
ATOM     11  C   UNL d   1      -2.055   0.512  -0.011  0.00  0.00     0.000 C 
BRANCH  11  12
ATOM     12  C   UNL d   1      -3.349  -0.321  -0.009  0.00  0.00     0.000 C 
BRANCH  12  13
ATOM     13  C   UNL d   1      -4.604   0.568  -0.001  0.00  0.00     0.001 C 
BRANCH  13  14
ATOM     14  C   UNL d   1      -5.904  -0.249  -0.025  0.00  0.00     0.010 C 
BRANCH  14  15
ATOM     15  C   UNL d   1      -7.143   0.654  -0.022  0.00  0.00     0.110 C 
BRANCH  15  16
ATOM     16  C   UNL d   1      -8.432  -0.130  -0.033  0.00  0.00     0.139 C 
ATOM     17  O   UNL d   1      -8.566  -1.340   0.007  0.00  0.00    -0.650 OA
BRANCH  16  18
ATOM     18  O   UNL d   1      -9.510   0.679  -0.086  0.00  0.00    -0.776 OA
ATOM     19  H   UNL d   1     -10.277   0.069  -0.085  0.00  0.00     0.167 HD
ENDBRANCH  16  18
ENDBRANCH  15  16
ENDBRANCH  14  15
ENDBRANCH  13  14
ENDBRANCH  12  13
ENDBRANCH  11  12
ENDBRANCH   1  11
TORSDOF 15
