REMARK  7 active torsions:
REMARK  status: ('A' for Active; 'I' for Inactive)
REMARK    1  A    between atoms: O_2  and  C_13 
REMARK    2  A    between atoms: O_3  and  C_15 
REMARK    3  A    between atoms: O_5  and  C_19 
REMARK    4  A    between atoms: O_6  and  C_21 
REMARK    5  A    between atoms: O_7  and  C_22 
REMARK    6  A    between atoms: O_8  and  C_23 
REMARK    7  A    between atoms: C_10  and  C_12 
ROOT
ATOM      1  O   UNL d   1      -0.514  -0.856   0.012  0.00  0.00    -0.306 OA
ATOM      2  O   UNL d   1      -2.285   2.809  -0.005  0.00  0.00    -0.284 OA
ATOM      3  C   UNL d   1      -2.535   0.487   0.005  0.00  0.00     0.084 A 
ATOM      4  C   UNL d   1       0.246   0.301   0.006  0.00  0.00     0.123 A 
ATOM      5  C   UNL d   1      -1.881  -0.738   0.009  0.00  0.00     0.096 A 
ATOM      6  C   UNL d   1      -0.247   1.554  -0.003  0.00  0.00     0.152 A 
ATOM      7  C   UNL d   1      -1.729   1.715  -0.001  0.00  0.00     0.223 A 
ATOM      8  C   UNL d   1      -3.935   0.531   0.005  0.00  0.00     0.085 A 
ATOM      9  C   UNL d   1      -2.618  -1.925   0.013  0.00  0.00     0.075 A 
ATOM     10  C   UNL d   1      -4.009  -1.868   0.012  0.00  0.00     0.071 A 
ATOM     11  C   UNL d   1      -4.676  -0.647   0.008  0.00  0.00     0.074 A 
ENDROOT
BRANCH   4  12
ATOM     12  C   UNL d   1       1.691   0.030   0.006  0.00  0.00     0.006 A 
ATOM     13  C   UNL d   1       2.390  -0.085   1.218  0.00  0.00     0.054 A 
ATOM     14  C   UNL d   1       3.764  -0.312   1.210  0.00  0.00     0.102 A 
ATOM     15  C   UNL d   1       4.446  -0.437   0.005  0.00  0.00     0.132 A 
ATOM     16  C   UNL d   1       3.753  -0.317  -1.196  0.00  0.00     0.102 A 
ATOM     17  C   UNL d   1       2.382  -0.086  -1.208  0.00  0.00     0.054 A 
BRANCH  14  18
ATOM     18  O   UNL d   1       4.410  -0.393   2.409  0.00  0.00    -0.358 OA
ATOM     19  H   UNL d   1       5.309  -0.040   2.293  0.00  0.00     0.217 HD
ENDBRANCH  14  18
BRANCH  15  20
ATOM     20  O   UNL d   1       5.788  -0.700  -0.047  0.00  0.00    -0.356 OA
ATOM     21  H   UNL d   1       6.006  -1.228   0.743  0.00  0.00     0.218 HD
ENDBRANCH  15  20
BRANCH  16  22
ATOM     22  O   UNL d   1       4.410  -0.443  -2.386  0.00  0.00    -0.358 OA
ATOM     23  H   UNL d   1       5.344  -0.610  -2.149  0.00  0.00     0.217 HD
ENDBRANCH  16  22
ENDBRANCH   4  12
BRANCH   6  24
ATOM     24  O   UNL d   1       0.519   2.706  -0.016  0.00  0.00    -0.355 OA
ATOM     25  H   UNL d   1       1.460   2.467  -0.042  0.00  0.00     0.218 HD
ENDBRANCH   6  24
BRANCH   8  26
ATOM     26  O   UNL d   1      -4.646   1.702   0.002  0.00  0.00    -0.360 OA
ATOM     27  H   UNL d   1      -4.003   2.449  -0.002  0.00  0.00     0.217 HD
ENDBRANCH   8  26
BRANCH  10  28
ATOM     28  O   UNL d   1      -4.692  -3.049   0.014  0.00  0.00    -0.361 OA
ATOM     29  H   UNL d   1      -5.646  -2.859   0.010  0.00  0.00     0.217 HD
ENDBRANCH  10  28
TORSDOF 7
