REMARK  2 active torsions:
REMARK  status: ('A' for Active; 'I' for Inactive)
REMARK    1  A    between atoms: O_2  and  C_8 
REMARK    2  A    between atoms: O_3  and  C_10 
ROOT
ATOM      1  O   UNL d   1      -1.980   1.075  -0.112  0.00  0.00    -0.275 OA
ATOM      2  O   UNL d   1      -4.227   0.616  -0.214  0.00  0.00    -0.260 OA
ATOM      3  C   UNL d   1      -0.414  -0.785   0.115  0.00  0.00     0.001 A 
ATOM      4  C   UNL d   1      -0.659   0.584  -0.003  0.00  0.00     0.092 A 
ATOM      5  C   UNL d   1       0.908  -1.234   0.221  0.00  0.00     0.054 A 
ATOM      6  C   UNL d   1       1.956  -0.310   0.188  0.00  0.00     0.102 A 
ATOM      7  C   UNL d   1       0.376   1.516  -0.015  0.00  0.00     0.077 A 
ATOM      8  C   UNL d   1       1.683   1.057   0.089  0.00  0.00     0.101 A 
ATOM      9  C   UNL d   1      -1.548  -1.701   0.128  0.00  0.00     0.020 A 
ATOM     10  C   UNL d   1      -2.788  -1.222   0.019  0.00  0.00     0.083 A 
ATOM     11  C   UNL d   1      -3.074   0.218  -0.111  0.00  0.00     0.288 A 
ENDROOT
BRANCH   6  12
ATOM     12  O   UNL d   1       3.247  -0.731   0.380  0.00  0.00    -0.353 OA
ATOM     13  C   UNL d   1       3.885  -1.052  -0.859  0.00  0.00     0.210 C 
ENDBRANCH   6  12
BRANCH   8  14
ATOM     14  O   UNL d   1       2.694   1.976   0.101  0.00  0.00    -0.358 OA
ATOM     15  H   UNL d   1       3.516   1.477   0.264  0.00  0.00     0.217 HD
ENDBRANCH   8  14
TORSDOF 2
