REMARK  10 active torsions:
REMARK  status: ('A' for Active; 'I' for Inactive)
REMARK    1  A    between atoms: O_2  and  C_17 
REMARK    2  A    between atoms: O_4  and  C_19 
REMARK    3  A    between atoms: O_5  and  C_23 
REMARK    4  A    between atoms: O_6  and  C_29 
REMARK    5  A    between atoms: C_7  and  C_8 
REMARK    6  A    between atoms: C_7  and  C_14 
REMARK    7  A    between atoms: C_7  and  C_16 
REMARK    8  A    between atoms: C_8  and  C_9 
REMARK    9  A    between atoms: C_11  and  C_18 
REMARK   10  A    between atoms: C_14  and  C_21 
ROOT
ATOM      1  O   UNL d   1      -0.249   0.898  -0.606  0.00  0.00    -0.339 OA
ATOM      2  O   UNL d   1       0.274   4.588   1.035  0.00  0.00    -0.292 OA
ATOM      3  C   UNL d   1       2.088   0.573  -0.809  0.00  0.00     0.010 A 
ATOM      4  C   UNL d   1       1.016   1.378  -0.385  0.00  0.00     0.095 A 
ATOM      5  C   UNL d   1      -1.241   1.447   0.276  0.00  0.00     0.172 C 
ATOM      6  C   UNL d   1      -1.270   2.964   0.166  0.00  0.00     0.121 C 
ATOM      7  C   UNL d   1       1.250   2.629   0.194  0.00  0.00     0.077 A 
ATOM      8  C   UNL d   1       0.092   3.479   0.534  0.00  0.00     0.167 C 
ATOM      9  C   UNL d   1       3.392   1.042  -0.598  0.00  0.00     0.077 A 
ATOM     10  C   UNL d   1       2.560   3.068   0.399  0.00  0.00     0.085 A 
ATOM     11  C   UNL d   1       3.633   2.274   0.011  0.00  0.00     0.074 A 
ENDROOT
BRANCH   3  12
ATOM     12  C   UNL d   1       1.827  -0.781  -1.442  0.00  0.00     0.053 C 
BRANCH  12  13
ATOM     13  C   UNL d   1       1.742  -1.935  -0.408  0.00  0.00     0.021 C 
BRANCH  13  14
ATOM     14  C   UNL d   1       0.891  -3.090  -0.991  0.00  0.00     0.036 C 
BRANCH  14  15
ATOM     15  C   UNL d   1       0.681  -4.230  -0.029  0.00  0.00    -0.024 C 
ATOM     16  C   UNL d   1      -0.278  -4.346   0.910  0.00  0.00    -0.091 C 
ATOM     17  C   UNL d   1      -0.333  -5.561   1.796  0.00  0.00     0.042 C 
ATOM     18  C   UNL d   1      -1.336  -3.318   1.196  0.00  0.00     0.042 C 
ENDBRANCH  14  15
ENDBRANCH  13  14
BRANCH  13  19
ATOM     19  C   UNL d   1       3.118  -2.401   0.077  0.00  0.00    -0.088 C 
ATOM     20  C   UNL d   1       4.079  -2.977  -0.930  0.00  0.00     0.043 C 
ATOM     21  C   UNL d   1       3.462  -2.307   1.375  0.00  0.00     0.014 C 
ENDBRANCH  13  19
ENDBRANCH  12  13
ENDBRANCH   3  12
BRANCH   9  22
ATOM     22  O   UNL d   1       4.448   0.282  -1.014  0.00  0.00    -0.360 OA
ATOM     23  H   UNL d   1       5.275   0.696  -0.718  0.00  0.00     0.217 HD
ENDBRANCH   9  22
BRANCH   5  24
ATOM     24  C   UNL d   1      -2.587   0.853  -0.099  0.00  0.00     0.005 A 
ATOM     25  C   UNL d   1      -3.571   0.631   0.873  0.00  0.00     0.077 A 
ATOM     26  C   UNL d   1      -4.814   0.092   0.540  0.00  0.00     0.073 A 
ATOM     27  C   UNL d   1      -5.078  -0.226  -0.788  0.00  0.00     0.068 A 
ATOM     28  C   UNL d   1      -4.130  -0.005  -1.778  0.00  0.00     0.037 A 
ATOM     29  C   UNL d   1      -2.889   0.536  -1.436  0.00  0.00     0.015 A 
BRANCH  25  30
ATOM     30  O   UNL d   1      -3.297   0.963   2.172  0.00  0.00    -0.360 OA
ATOM     31  H   UNL d   1      -4.063   0.736   2.726  0.00  0.00     0.217 HD
ENDBRANCH  25  30
BRANCH  27  32
ATOM     32  O   UNL d   1      -6.277  -0.752  -1.167  0.00  0.00    -0.361 OA
ATOM     33  H   UNL d   1      -6.840  -0.852  -0.383  0.00  0.00     0.217 HD
ENDBRANCH  27  32
ENDBRANCH   5  24
BRANCH  10  34
ATOM     34  O   UNL d   1       2.866   4.276   0.966  0.00  0.00    -0.360 OA
ATOM     35  H   UNL d   1       2.021   4.734   1.179  0.00  0.00     0.217 HD
ENDBRANCH  10  34
TORSDOF 10
