REMARK  4 active torsions:
REMARK  status: ('A' for Active; 'I' for Inactive)
REMARK    1  A    between atoms: O_2  and  C_12 
REMARK    2  A    between atoms: O_4  and  C_14 
REMARK    3  A    between atoms: O_5  and  C_20 
REMARK    4  A    between atoms: C_8  and  C_9 
ROOT
ATOM      1  O   UNL d   1      -0.079   0.769  -0.056  0.00  0.00    -0.309 OA
ATOM      2  O   UNL d   1      -1.749  -2.925   0.201  0.00  0.00    -0.287 OA
ATOM      3  C   UNL d   1      -2.081  -0.605   0.040  0.00  0.00     0.081 A 
ATOM      4  C   UNL d   1      -1.446   0.631  -0.045  0.00  0.00     0.095 A 
ATOM      5  C   UNL d   1       0.706  -0.374   0.029  0.00  0.00     0.090 A 
ATOM      6  C   UNL d   1      -1.248  -1.808   0.132  0.00  0.00     0.190 A 
ATOM      7  C   UNL d   1       0.207  -1.615   0.136  0.00  0.00     0.094 A 
ATOM      8  C   UNL d   1      -3.478  -0.680   0.038  0.00  0.00     0.085 A 
ATOM      9  C   UNL d   1      -2.205   1.798  -0.124  0.00  0.00     0.075 A 
ATOM     10  C   UNL d   1      -3.596   1.713  -0.122  0.00  0.00     0.071 A 
ATOM     11  C   UNL d   1      -4.242   0.481  -0.043  0.00  0.00     0.074 A 
ENDROOT
BRANCH   5  12
ATOM     12  C   UNL d   1       2.165  -0.118   0.011  0.00  0.00    -0.002 A 
ATOM     13  C   UNL d   1       3.067  -1.033  -0.560  0.00  0.00     0.017 A 
ATOM     14  C   UNL d   1       4.443  -0.781  -0.573  0.00  0.00     0.037 A 
ATOM     15  C   UNL d   1       4.925   0.400  -0.024  0.00  0.00     0.065 A 
ATOM     16  C   UNL d   1       4.056   1.329   0.532  0.00  0.00     0.037 A 
ATOM     17  C   UNL d   1       2.682   1.072   0.548  0.00  0.00     0.017 A 
BRANCH  15  18
ATOM     18  O   UNL d   1       6.257   0.687  -0.016  0.00  0.00    -0.361 OA
ATOM     19  H   UNL d   1       6.737  -0.046  -0.435  0.00  0.00     0.217 HD
ENDBRANCH  15  18
ENDBRANCH   5  12
BRANCH   8  20
ATOM     20  O   UNL d   1      -4.161  -1.864   0.114  0.00  0.00    -0.360 OA
ATOM     21  H   UNL d   1      -3.504  -2.595   0.164  0.00  0.00     0.217 HD
ENDBRANCH   8  20
BRANCH  10  22
ATOM     22  O   UNL d   1      -4.302   2.876  -0.201  0.00  0.00    -0.361 OA
ATOM     23  H   UNL d   1      -5.252   2.669  -0.190  0.00  0.00     0.217 HD
ENDBRANCH  10  22
TORSDOF 4
