REMARK  4 active torsions:
REMARK  status: ('A' for Active; 'I' for Inactive)
REMARK    1  A    between atoms: O_1  and  C_4 
REMARK    2  A    between atoms: O_1  and  C_7 
REMARK    3  A    between atoms: C_4  and  C_5 
REMARK    4  A    between atoms: C_6  and  C_7 
ROOT
ATOM      1  C   UNL d   1       0.129  -0.901   0.293  0.00  0.00     0.243 C 
ENDROOT
BRANCH   1   2
ATOM      2  O   UNL d   1      -0.784   0.120  -0.119  0.00  0.00    -0.315 OA
BRANCH   2   3
ATOM      3  C   UNL d   1      -2.093  -0.209   0.053  0.00  0.00     0.258 C 
ATOM      4  O   UNL d   1      -2.497  -1.276   0.496  0.00  0.00    -0.265 OA
BRANCH   3   5
ATOM      5  C   UNL d   1      -2.960   0.946  -0.394  0.00  0.00     0.106 C 
ATOM      6  C   UNL d   1      -4.443   0.646  -0.263  0.00  0.00     0.015 C 
ENDBRANCH   3   5
ENDBRANCH   2   3
ENDBRANCH   1   2
BRANCH   1   7
ATOM      7  C   UNL d   1       1.500  -0.383   0.050  0.00  0.00     0.076 A 
ATOM      8  O   UNL d   1       1.865   0.743   0.732  0.00  0.00    -0.325 OA
ATOM      9  C   UNL d   1       3.143   1.028   0.375  0.00  0.00     0.142 A 
ATOM     10  C   UNL d   1       3.613   0.095  -0.519  0.00  0.00     0.027 A 
ATOM     11  C   UNL d   1       2.552  -0.819  -0.729  0.00  0.00     0.037 A 
ENDBRANCH   1   7
TORSDOF 4
