REMARK  2 active torsions:
REMARK  status: ('A' for Active; 'I' for Inactive)
REMARK    1  A    between atoms: O_1  and  C_9 
REMARK    2  A    between atoms: C_2  and  C_3 
ROOT
ATOM      1  C   UNL d   1       0.903  -0.312   0.000  0.00  0.00    -0.052 A 
ATOM      2  C   UNL d   1       0.161   0.877   0.000  0.00  0.00     0.044 A 
ATOM      3  C   UNL d   1       0.211  -1.529   0.001  0.00  0.00     0.008 A 
ATOM      4  C   UNL d   1      -1.929  -0.366   0.000  0.00  0.00    -0.029 A 
ATOM      5  C   UNL d   1      -1.232   0.847   0.000  0.00  0.00     0.072 A 
ATOM      6  C   UNL d   1      -1.188  -1.556   0.001  0.00  0.00     0.010 A 
ATOM      7  C   UNL d   1      -3.427  -0.429   0.001  0.00  0.00     0.051 C 
ENDROOT
BRANCH   1   8
ATOM      8  C   UNL d   1       2.420  -0.302  -0.000  0.00  0.00     0.010 C 
ATOM      9  C   UNL d   1       2.975   0.365   1.261  0.00  0.00     0.015 C 
ATOM     10  C   UNL d   1       2.975   0.365  -1.261  0.00  0.00     0.015 C 
ENDBRANCH   1   8
BRANCH   5  11
ATOM     11  O   UNL d   1      -1.859   2.061   0.000  0.00  0.00    -0.360 OA
ATOM     12  H   UNL d   1      -2.819   1.925  -0.000  0.00  0.00     0.217 HD
ENDBRANCH   5  11
TORSDOF 2
