REMARK  3 active torsions:
REMARK  status: ('A' for Active; 'I' for Inactive)
REMARK    1  A    between atoms: O_1  and  C_5 
REMARK    2  A    between atoms: O_2  and  C_6 
REMARK    3  A    between atoms: C_5  and  C_6 
ROOT
ATOM      1  O   UNL d   1       1.473   1.006  -0.000  0.00  0.00    -0.642 OA
ATOM      2  C   UNL d   1       0.780   0.008  -0.000  0.00  0.00     0.243 C 
ENDROOT
BRANCH   2   3
ATOM      3  O   UNL d   1       1.309  -1.224   0.000  0.00  0.00    -0.769 OA
ATOM      4  H   UNL d   1       2.277  -1.079   0.000  0.00  0.00     0.168 HD
ENDBRANCH   2   3
BRANCH   2   5
ATOM      5  C   UNL d   1      -0.779  -0.009  -0.000  0.00  0.00     0.243 C 
ATOM      6  O   UNL d   1      -1.472  -1.007  -0.000  0.00  0.00    -0.642 OA
BRANCH   5   7
ATOM      7  O   UNL d   1      -1.307   1.223   0.000  0.00  0.00    -0.769 OA
ATOM      8  H   UNL d   1      -2.275   1.081  -0.000  0.00  0.00     0.168 HD
ENDBRANCH   5   7
ENDBRANCH   2   5
TORSDOF 3
