REMARK  0 active torsions:
REMARK  status: ('A' for Active; 'I' for Inactive)
ROOT
ATOM      1  C   UNL d   1      -1.561  -0.231   0.222  0.00  0.00    -0.039 A 
ATOM      2  C   UNL d   1      -0.611  -0.530  -0.933  0.00  0.00     0.003 A 
ATOM      3  C   UNL d   1      -0.915   0.902  -0.571  0.00  0.00     0.002 A 
ATOM      4  C   UNL d   1       0.777  -1.076  -0.735  0.00  0.00     0.039 A 
ATOM      5  C   UNL d   1       0.176   1.777  -0.025  0.00  0.00     0.033 A 
ATOM      6  C   UNL d   1      -1.155  -0.508   1.650  0.00  0.00     0.015 C 
ATOM      7  C   UNL d   1      -3.032  -0.484  -0.017  0.00  0.00     0.015 C 
ATOM      8  C   UNL d   1       1.779  -0.165  -0.064  0.00  0.00    -0.087 A 
ATOM      9  C   UNL d   1       1.500   1.117   0.238  0.00  0.00    -0.024 A 
ATOM     10  C   UNL d   1       3.097  -0.794   0.281  0.00  0.00     0.043 C 
ENDROOT
TORSDOF 0
