REMARK  4 active torsions:
REMARK  status: ('A' for Active; 'I' for Inactive)
REMARK    1  A    between atoms: O_1  and  C_6 
REMARK    2  A    between atoms: O_2  and  C_8 
REMARK    3  A    between atoms: C_3  and  C_4 
REMARK    4  A    between atoms: C_4  and  C_10 
ROOT
ATOM      1  C   UNL d   1      -1.256  -0.086   0.523  0.00  0.00    -0.052 A 
ATOM      2  C   UNL d   1      -0.350   0.983   0.538  0.00  0.00     0.047 A 
ATOM      3  C   UNL d   1       1.008   0.764   0.277  0.00  0.00     0.102 A 
ATOM      4  C   UNL d   1      -0.784  -1.370   0.241  0.00  0.00     0.010 A 
ATOM      5  C   UNL d   1       1.487  -0.529   0.017  0.00  0.00     0.101 A 
ATOM      6  C   UNL d   1       0.575  -1.586  -0.001  0.00  0.00     0.040 A 
ENDROOT
BRANCH   1   7
ATOM      7  C   UNL d   1      -2.726   0.129   0.789  0.00  0.00     0.065 C 
BRANCH   7   8
ATOM      8  C   UNL d   1      -3.495   0.400  -0.472  0.00  0.00    -0.032 C 
ATOM      9  C   UNL d   1      -4.523  -0.341  -0.906  0.00  0.00     0.007 C 
ENDBRANCH   7   8
ENDBRANCH   1   7
BRANCH   3  10
ATOM     10  O   UNL d   1       1.868   1.827   0.404  0.00  0.00    -0.353 OA
ATOM     11  C   UNL d   1       2.041   2.496  -0.845  0.00  0.00     0.210 C 
ENDBRANCH   3  10
BRANCH   5  12
ATOM     12  O   UNL d   1       2.834  -0.671  -0.193  0.00  0.00    -0.353 OA
ATOM     13  C   UNL d   1       3.295  -1.994  -0.447  0.00  0.00     0.210 C 
ENDBRANCH   5  12
TORSDOF 4
