REMARK  7 active torsions:
REMARK  status: ('A' for Active; 'I' for Inactive)
REMARK    1  A    between atoms: C_1  and  C_2 
REMARK    2  A    between atoms: C_1  and  C_3 
REMARK    3  A    between atoms: C_3  and  C_7 
REMARK    4  A    between atoms: C_4  and  C_5 
REMARK    5  A    between atoms: C_4  and  C_6 
REMARK    6  A    between atoms: C_6  and  C_10 
REMARK    7  A    between atoms: C_10  and  C_13 
ROOT
ATOM      1  C   UNL d   1       0.406  -2.328  -0.148  0.00  0.00    -0.087 C 
ATOM      2  C   UNL d   1      -0.822  -2.028   0.319  0.00  0.00    -0.024 C 
ATOM      3  C   UNL d   1       0.845  -3.761  -0.299  0.00  0.00     0.043 C 
ENDROOT
BRANCH   1   4
ATOM      4  C   UNL d   1       1.414  -1.292  -0.600  0.00  0.00     0.037 C 
BRANCH   4   5
ATOM      5  C   UNL d   1       2.403  -0.912   0.506  0.00  0.00     0.031 C 
BRANCH   5   6
ATOM      6  C   UNL d   1       3.395   0.111   0.020  0.00  0.00    -0.024 C 
ATOM      7  C   UNL d   1       3.329   1.447   0.177  0.00  0.00    -0.091 C 
ATOM      8  C   UNL d   1       4.420   2.340  -0.352  0.00  0.00     0.042 C 
ATOM      9  C   UNL d   1       2.200   2.177   0.850  0.00  0.00     0.042 C 
ENDBRANCH   5   6
ENDBRANCH   4   5
ENDBRANCH   1   4
BRANCH   2  10
ATOM     10  C   UNL d   1      -1.387  -0.649   0.540  0.00  0.00     0.032 C 
BRANCH  10  11
ATOM     11  C   UNL d   1      -2.208  -0.177  -0.665  0.00  0.00     0.041 C 
BRANCH  11  12
ATOM     12  C   UNL d   1      -2.831   1.186  -0.437  0.00  0.00    -0.068 C 
ATOM     13  C   UNL d   1      -2.221   2.290  -0.905  0.00  0.00     0.019 C 
BRANCH  12  14
ATOM     14  C   UNL d   1      -4.102   1.312   0.259  0.00  0.00    -0.004 C 
ATOM     15  C   UNL d   1      -4.840   0.316   0.766  0.00  0.00     0.012 C 
ENDBRANCH  12  14
ENDBRANCH  11  12
ENDBRANCH  10  11
ENDBRANCH   2  10
TORSDOF 7
