REMARK  7 active torsions:
REMARK  status: ('A' for Active; 'I' for Inactive)
REMARK    1  A    between atoms: O_1  and  C_22 
REMARK    2  A    between atoms: C_6  and  C_13 
REMARK    3  A    between atoms: C_13  and  C_20 
REMARK    4  A    between atoms: C_20  and  C_24 
REMARK    5  A    between atoms: C_24  and  C_25 
REMARK    6  A    between atoms: C_25  and  C_26 
REMARK    7  A    between atoms: C_25  and  C_27 
ROOT
ATOM      1  C   UNL d   1      -0.274   0.026   0.116  0.00  0.00    -0.036 C 
ATOM      2  C   UNL d   1       0.675  -1.103   0.580  0.00  0.00    -0.001 C 
ATOM      3  C   UNL d   1       2.070  -1.022  -0.050  0.00  0.00    -0.001 C 
ATOM      4  C   UNL d   1       2.716   0.353   0.286  0.00  0.00     0.003 C 
ATOM      5  C   UNL d   1      -1.567  -0.401   0.872  0.00  0.00    -0.002 C 
ATOM      6  C   UNL d   1       0.359   1.347   0.584  0.00  0.00     0.010 C 
ATOM      7  C   UNL d   1       4.134   0.512  -0.385  0.00  0.00    -0.017 C 
ATOM      8  C   UNL d   1      -0.138  -2.374   0.381  0.00  0.00     0.006 C 
ATOM      9  C   UNL d   1       1.766   1.541   0.013  0.00  0.00     0.007 C 
ATOM     10  C   UNL d   1      -1.580  -1.947   0.697  0.00  0.00     0.006 C 
ATOM     11  C   UNL d   1       2.967  -2.161   0.455  0.00  0.00     0.033 C 
ATOM     12  C   UNL d   1      -0.512   0.044  -1.414  0.00  0.00     0.016 C 
ATOM     13  C   UNL d   1       4.959  -0.768  -0.209  0.00  0.00    -0.072 C 
ATOM     14  C   UNL d   1       4.867   1.699   0.312  0.00  0.00     0.016 C 
ATOM     15  C   UNL d   1       4.422  -1.941   0.178  0.00  0.00    -0.023 C 
ATOM     16  C   UNL d   1       4.011   0.806  -1.902  0.00  0.00     0.020 C 
ATOM     17  C   UNL d   1       6.442  -0.667  -0.486  0.00  0.00     0.066 C 
ATOM     18  C   UNL d   1       6.354   1.809  -0.031  0.00  0.00     0.033 C 
ATOM     19  C   UNL d   1       7.085   0.505   0.259  0.00  0.00     0.122 C 
ENDROOT
BRANCH   5  20
ATOM     20  C   UNL d   1      -2.915   0.273   0.479  0.00  0.00    -0.014 C 
ATOM     21  C   UNL d   1      -2.830   1.798   0.606  0.00  0.00     0.010 C 
BRANCH  20  22
ATOM     22  C   UNL d   1      -4.062  -0.294   1.350  0.00  0.00     0.005 C 
BRANCH  22  23
ATOM     23  C   UNL d   1      -5.460   0.296   1.103  0.00  0.00     0.005 C 
BRANCH  23  24
ATOM     24  C   UNL d   1      -6.015   0.164  -0.339  0.00  0.00    -0.012 C 
BRANCH  24  25
ATOM     25  C   UNL d   1      -7.351   0.953  -0.530  0.00  0.00    -0.019 C 
ATOM     26  C   UNL d   1      -7.189   2.454  -0.255  0.00  0.00     0.010 C 
ATOM     27  C   UNL d   1      -8.516   0.406   0.300  0.00  0.00     0.010 C 
ENDBRANCH  24  25
BRANCH  24  28
ATOM     28  C   UNL d   1      -6.130  -1.330  -0.731  0.00  0.00     0.000 C 
ATOM     29  C   UNL d   1      -6.656  -1.582  -2.137  0.00  0.00     0.005 C 
ENDBRANCH  24  28
ENDBRANCH  23  24
ENDBRANCH  22  23
ENDBRANCH  20  22
ENDBRANCH   5  20
BRANCH  19  30
ATOM     30  O   UNL d   1       8.444   0.653  -0.143  0.00  0.00    -0.395 OA
ATOM     31  H   UNL d   1       8.900  -0.183   0.059  0.00  0.00     0.210 HD
ENDBRANCH  19  30
TORSDOF 7
