REMARK  1 active torsions:
REMARK  status: ('A' for Active; 'I' for Inactive)
REMARK    1  A    between atoms: O_3  and  C_7 
ROOT
ATOM      1  O   UNL d   1       2.674  -1.920  -0.134  0.00  0.00    -0.322 OA
ATOM      2  O   UNL d   1      -2.114  -1.349  -0.135  0.00  0.00    -0.275 OA
ATOM      3  O   UNL d   1      -4.377  -0.986  -0.125  0.00  0.00    -0.260 OA
ATOM      4  C   UNL d   1       1.796   0.149   0.107  0.00  0.00     0.034 A 
ATOM      5  C   UNL d   1      -0.604   0.556   0.133  0.00  0.00     0.032 A 
ATOM      6  C   UNL d   1       0.714   1.052   0.192  0.00  0.00     0.094 A 
ATOM      7  C   UNL d   1       1.519  -1.203  -0.070  0.00  0.00     0.090 A 
ATOM      8  C   UNL d   1      -0.807  -0.815  -0.051  0.00  0.00     0.095 A 
ATOM      9  C   UNL d   1       0.238  -1.737  -0.161  0.00  0.00     0.076 A 
ATOM     10  C   UNL d   1       3.214   0.241   0.165  0.00  0.00     0.041 A 
ATOM     11  C   UNL d   1      -1.778   1.415   0.257  0.00  0.00     0.023 A 
ATOM     12  C   UNL d   1       3.696  -1.038   0.012  0.00  0.00     0.143 A 
ATOM     13  C   UNL d   1      -3.005   0.894   0.170  0.00  0.00     0.083 A 
ATOM     14  C   UNL d   1      -3.238  -0.542  -0.041  0.00  0.00     0.288 A 
ENDROOT
BRANCH   6  15
ATOM     15  O   UNL d   1       0.937   2.392   0.430  0.00  0.00    -0.354 OA
ATOM     16  C   UNL d   1       1.115   3.088  -0.804  0.00  0.00     0.210 C 
ENDBRANCH   6  15
TORSDOF 1
