REMARK  11 active torsions:
REMARK  status: ('A' for Active; 'I' for Inactive)
REMARK    1  A    between atoms: O_1  and  C_7 
REMARK    2  A    between atoms: O_2  and  C_8 
REMARK    3  A    between atoms: O_3  and  C_9 
REMARK    4  A    between atoms: O_4  and  C_10 
REMARK    5  A    between atoms: O_5  and  C_11 
REMARK    6  A    between atoms: O_6  and  C_12 
REMARK    7  A    between atoms: C_7  and  C_8 
REMARK    8  A    between atoms: C_7  and  C_9 
REMARK    9  A    between atoms: C_8  and  C_10 
REMARK   10  A    between atoms: C_9  and  C_11 
REMARK   11  A    between atoms: C_10  and  C_12 
ROOT
ATOM      1  C   UNL d   1       0.628   0.461  -0.085  0.00  0.00     0.180 C 
ENDROOT
BRANCH   1   2
ATOM      2  O   UNL d   1       0.532   1.208  -1.315  0.00  0.00    -0.390 OA
ATOM      3  H   UNL d   1       1.115   0.794  -1.979  0.00  0.00     0.210 HD
ENDBRANCH   1   2
BRANCH   1   4
ATOM      4  C   UNL d   1      -0.576  -0.505  -0.023  0.00  0.00     0.180 C 
BRANCH   4   5
ATOM      5  O   UNL d   1      -0.574  -1.319  -1.205  0.00  0.00    -0.390 OA
ATOM      6  H   UNL d   1      -0.659  -0.702  -1.957  0.00  0.00     0.210 HD
ENDBRANCH   4   5
BRANCH   4   7
ATOM      7  C   UNL d   1      -1.912   0.249   0.115  0.00  0.00     0.173 C 
BRANCH   7   8
ATOM      8  O   UNL d   1      -1.962   0.908   1.388  0.00  0.00    -0.391 OA
ATOM      9  H   UNL d   1      -2.908   0.942   1.640  0.00  0.00     0.210 HD
ENDBRANCH   7   8
BRANCH   7  10
ATOM     10  C   UNL d   1      -3.122  -0.687   0.004  0.00  0.00     0.198 C 
BRANCH  10  11
ATOM     11  O   UNL d   1      -4.314   0.075   0.229  0.00  0.00    -0.398 OA
ATOM     12  H   UNL d   1      -4.404   0.700  -0.512  0.00  0.00     0.209 HD
ENDBRANCH  10  11
ENDBRANCH   7  10
ENDBRANCH   4   7
ENDBRANCH   1   4
BRANCH   1  13
ATOM     13  C   UNL d   1       1.984  -0.276  -0.000  0.00  0.00     0.173 C 
BRANCH  13  14
ATOM     14  O   UNL d   1       2.089  -1.083   1.179  0.00  0.00    -0.391 OA
ATOM     15  H   UNL d   1       1.607  -1.913   1.005  0.00  0.00     0.210 HD
ENDBRANCH  13  14
BRANCH  13  16
ATOM     16  C   UNL d   1       3.154   0.716   0.026  0.00  0.00     0.198 C 
BRANCH  16  17
ATOM     17  O   UNL d   1       4.382  -0.012   0.083  0.00  0.00    -0.398 OA
ATOM     18  H   UNL d   1       4.267  -0.636   0.828  0.00  0.00     0.209 HD
ENDBRANCH  16  17
ENDBRANCH  13  16
ENDBRANCH   1  13
TORSDOF 11
