REMARK  1 active torsions:
REMARK  status: ('A' for Active; 'I' for Inactive)
REMARK    1  A    between atoms: C_1  and  C_2 
ROOT
ATOM      1  C   UNL d   1       0.698  -0.195  -0.001  0.00  0.00    -0.055 A 
ATOM      2  C   UNL d   1       0.103   1.075  -0.002  0.00  0.00     0.008 A 
ATOM      3  C   UNL d   1      -0.134  -1.323  -0.001  0.00  0.00     0.008 A 
ATOM      4  C   UNL d   1      -2.111   0.085   0.021  0.00  0.00    -0.062 A 
ATOM      5  C   UNL d   1      -1.286   1.213   0.003  0.00  0.00     0.007 A 
ATOM      6  C   UNL d   1      -1.525  -1.184   0.004  0.00  0.00     0.007 A 
ATOM      7  C   UNL d   1      -3.603   0.236   0.001  0.00  0.00     0.048 C 
ENDROOT
BRANCH   1   8
ATOM      8  C   UNL d   1       2.205  -0.365  -0.001  0.00  0.00     0.010 C 
ATOM      9  C   UNL d   1       2.834   0.234   1.260  0.00  0.00     0.015 C 
ATOM     10  C   UNL d   1       2.834   0.234  -1.261  0.00  0.00     0.015 C 
ENDBRANCH   1   8
TORSDOF 1
