REMARK  5 active torsions:
REMARK  status: ('A' for Active; 'I' for Inactive)
REMARK    1  A    between atoms: O_1  and  C_2 
REMARK    2  A    between atoms: C_2  and  C_3 
REMARK    3  A    between atoms: C_2  and  C_6 
REMARK    4  A    between atoms: C_3  and  C_4 
REMARK    5  A    between atoms: C_4  and  C_7 
ROOT
ATOM      1  C   UNL d   1       1.878  -0.416  -0.233  0.00  0.00     0.071 C 
ATOM      2  C   UNL d   1       2.506  -1.143   0.962  0.00  0.00     0.050 C 
ENDROOT
BRANCH   1   3
ATOM      3  O   UNL d   1       2.508  -0.971  -1.397  0.00  0.00    -0.386 OA
ATOM      4  H   UNL d   1       2.107  -0.559  -2.179  0.00  0.00     0.211 HD
ENDBRANCH   1   3
BRANCH   1   5
ATOM      5  C   UNL d   1       0.368  -0.722  -0.341  0.00  0.00     0.045 C 
BRANCH   5   6
ATOM      6  C   UNL d   1      -0.488  -0.198   0.816  0.00  0.00     0.030 C 
BRANCH   6   7
ATOM      7  C   UNL d   1      -1.931  -0.599   0.641  0.00  0.00    -0.025 C 
ATOM      8  C   UNL d   1      -2.885   0.113   0.002  0.00  0.00    -0.091 C 
ATOM      9  C   UNL d   1      -4.309  -0.375  -0.107  0.00  0.00     0.042 C 
ATOM     10  C   UNL d   1      -2.625   1.430  -0.674  0.00  0.00     0.042 C 
ENDBRANCH   6   7
ENDBRANCH   5   6
ENDBRANCH   1   5
BRANCH   1  11
ATOM     11  C   UNL d   1       2.144   1.075  -0.281  0.00  0.00    -0.000 C 
ATOM     12  C   UNL d   1       2.837   1.812   0.600  0.00  0.00     0.010 C 
ENDBRANCH   1  11
TORSDOF 5
