REMARK  0 active torsions:
REMARK  status: ('A' for Active; 'I' for Inactive)
ROOT
ATOM      1  C   UNL d   1      -0.149   0.401   0.375  0.00  0.00    -0.018 A 
ATOM      2  C   UNL d   1       1.148   1.137  -0.020  0.00  0.00     0.025 A 
ATOM      3  C   UNL d   1      -0.048  -1.175   0.388  0.00  0.00    -0.032 C 
ATOM      4  C   UNL d   1       0.663   1.211   1.390  0.00  0.00     0.021 A 
ATOM      5  C   UNL d   1      -1.516   0.988  -0.101  0.00  0.00    -0.039 C 
ATOM      6  C   UNL d   1      -1.426  -1.862   0.229  0.00  0.00     0.010 C 
ATOM      7  C   UNL d   1      -2.059   0.119  -1.256  0.00  0.00     0.010 C 
ATOM      8  C   UNL d   1       0.886  -1.651  -0.767  0.00  0.00     0.037 C 
ATOM      9  C   UNL d   1       2.327   0.325  -0.372  0.00  0.00    -0.083 C 
ATOM     10  C   UNL d   1      -2.293  -1.343  -0.908  0.00  0.00     0.002 C 
ATOM     11  C   UNL d   1       0.514  -1.708   1.735  0.00  0.00     0.016 C 
ATOM     12  C   UNL d   1      -2.510   1.069   1.077  0.00  0.00     0.015 C 
ATOM     13  C   UNL d   1      -1.415   2.427  -0.672  0.00  0.00     0.015 C 
ATOM     14  C   UNL d   1       2.218  -0.956  -0.768  0.00  0.00    -0.023 C 
ATOM     15  C   UNL d   1       3.658   1.019  -0.328  0.00  0.00     0.043 C 
ENDROOT
TORSDOF 0
