REMARK  0 active torsions:
REMARK  status: ('A' for Active; 'I' for Inactive)
ROOT
ATOM      1  C   UNL d   1       0.988  -0.255  -0.511  0.00  0.00     0.004 A 
ATOM      2  C   UNL d   1       2.293   0.176   0.150  0.00  0.00    -0.039 A 
ATOM      3  C   UNL d   1       1.445   1.184  -0.620  0.00  0.00    -0.001 A 
ATOM      4  C   UNL d   1      -0.258  -0.593   0.259  0.00  0.00     0.002 C 
ATOM      5  C   UNL d   1      -1.507   0.015  -0.435  0.00  0.00     0.018 C 
ATOM      6  C   UNL d   1       0.681   2.305   0.029  0.00  0.00     0.010 C 
ATOM      7  C   UNL d   1      -0.552  -2.109   0.412  0.00  0.00    -0.013 C 
ATOM      8  C   UNL d   1       2.405   0.241   1.654  0.00  0.00     0.015 C 
ATOM      9  C   UNL d   1       3.575  -0.290  -0.501  0.00  0.00     0.015 C 
ATOM     10  C   UNL d   1      -2.604  -1.018  -0.147  0.00  0.00     0.010 C 
ATOM     11  C   UNL d   1      -1.868  -2.337  -0.337  0.00  0.00     0.005 C 
ATOM     12  C   UNL d   1      -0.731   2.473  -0.548  0.00  0.00     0.034 C 
ATOM     13  C   UNL d   1      -1.746   1.462  -0.029  0.00  0.00    -0.085 C 
ATOM     14  C   UNL d   1       0.538  -3.087  -0.001  0.00  0.00     0.010 C 
ATOM     15  C   UNL d   1      -2.787   1.875   0.715  0.00  0.00     0.014 C 
ENDROOT
TORSDOF 0
