REMARK  1 active torsions:
REMARK  status: ('A' for Active; 'I' for Inactive)
REMARK    1  A    between atoms: O_1  and  C_9 
ROOT
ATOM      1  C   UNL d   1       1.074   0.025  -0.444  0.00  0.00     0.003 A 
ATOM      2  C   UNL d   1       2.103   1.062   0.013  0.00  0.00    -0.039 A 
ATOM      3  C   UNL d   1       0.900   1.474  -0.823  0.00  0.00    -0.001 A 
ATOM      4  C   UNL d   1       0.216  -0.721   0.558  0.00  0.00     0.001 C 
ATOM      5  C   UNL d   1      -1.292  -0.768   0.235  0.00  0.00     0.024 C 
ATOM      6  C   UNL d   1      -0.249   2.273  -0.326  0.00  0.00     0.009 C 
ATOM      7  C   UNL d   1       0.528  -2.241   0.520  0.00  0.00    -0.014 C 
ATOM      8  C   UNL d   1      -2.100   0.546   0.176  0.00  0.00     0.058 C 
ATOM      9  C   UNL d   1      -1.361  -1.720  -0.963  0.00  0.00     0.008 C 
ATOM     10  C   UNL d   1      -1.579   1.655  -0.755  0.00  0.00     0.038 C 
ATOM     11  C   UNL d   1       2.203   1.459   1.466  0.00  0.00     0.015 C 
ATOM     12  C   UNL d   1       3.447   1.052  -0.677  0.00  0.00     0.015 C 
ATOM     13  C   UNL d   1      -0.257  -2.760  -0.700  0.00  0.00     0.005 C 
ATOM     14  C   UNL d   1       2.000  -2.631   0.517  0.00  0.00     0.010 C 
ATOM     15  C   UNL d   1      -3.563   0.242  -0.196  0.00  0.00     0.046 C 
ENDROOT
BRANCH   8  16
ATOM     16  O   UNL d   1      -2.129   1.061   1.520  0.00  0.00    -0.390 OA
ATOM     17  H   UNL d   1      -2.665   1.873   1.521  0.00  0.00     0.210 HD
ENDBRANCH   8  16
TORSDOF 1
