REMARK  3 active torsions:
REMARK  status: ('A' for Active; 'I' for Inactive)
REMARK    1  A    between atoms: O_3  and  C_18 
REMARK    2  A    between atoms: O_4  and  C_21 
REMARK    3  A    between atoms: C_20  and  C_22 
ROOT
ATOM      1  O   UNL d   1       0.847   1.986   1.432  0.00  0.00    -0.310 OA
ATOM      2  O   UNL d   1       2.046   0.582   2.744  0.00  0.00    -0.264 OA
ATOM      3  C   UNL d   1       1.815   0.369  -0.776  0.00  0.00     0.019 C 
ATOM      4  C   UNL d   1       1.249  -0.264   0.558  0.00  0.00     0.083 C 
ATOM      5  C   UNL d   1       3.332   0.120  -1.029  0.00  0.00    -0.043 C 
ATOM      6  C   UNL d   1       1.319   1.837  -0.901  0.00  0.00     0.044 C 
ATOM      7  C   UNL d   1       1.984  -1.576   0.898  0.00  0.00     0.025 C 
ATOM      8  C   UNL d   1       3.605  -1.416  -1.041  0.00  0.00     0.009 C 
ATOM      9  C   UNL d   1       0.214   2.070   0.139  0.00  0.00     0.166 C 
ATOM     10  C   UNL d   1      -0.270  -0.329   0.312  0.00  0.00     0.006 A 
ATOM     11  C   UNL d   1       2.532  -2.264  -0.348  0.00  0.00     0.002 C 
ATOM     12  C   UNL d   1      -0.807   0.954   0.073  0.00  0.00    -0.018 A 
ATOM     13  C   UNL d   1       1.439   0.775   1.698  0.00  0.00     0.273 C 
ATOM     14  C   UNL d   1       4.236   0.787   0.029  0.00  0.00     0.015 C 
ATOM     15  C   UNL d   1       3.740   0.694  -2.404  0.00  0.00     0.015 C 
ATOM     16  C   UNL d   1      -1.121  -1.421   0.288  0.00  0.00     0.107 A 
ATOM     17  C   UNL d   1      -2.168   1.137  -0.185  0.00  0.00     0.021 A 
ATOM     18  C   UNL d   1      -3.034   0.032  -0.224  0.00  0.00    -0.018 A 
ATOM     19  C   UNL d   1      -2.485  -1.245   0.005  0.00  0.00     0.106 A 
ENDROOT
BRANCH  18  20
ATOM     20  C   UNL d   1      -4.519   0.238  -0.476  0.00  0.00     0.013 C 
ATOM     21  C   UNL d   1      -4.764   0.831  -1.867  0.00  0.00     0.015 C 
ATOM     22  C   UNL d   1      -5.168   1.093   0.616  0.00  0.00     0.015 C 
ENDBRANCH  18  20
BRANCH  19  23
ATOM     23  O   UNL d   1      -3.252  -2.379  -0.059  0.00  0.00    -0.357 OA
ATOM     24  H   UNL d   1      -3.883  -2.280  -0.787  0.00  0.00     0.217 HD
ENDBRANCH  19  23
BRANCH  16  25
ATOM     25  O   UNL d   1      -0.673  -2.686   0.514  0.00  0.00    -0.357 OA
ATOM     26  H   UNL d   1      -0.220  -2.967  -0.296  0.00  0.00     0.217 HD
ENDBRANCH  16  25
TORSDOF 3
