REMARK  5 active torsions:
REMARK  status: ('A' for Active; 'I' for Inactive)
REMARK    1  A    between atoms: O_1  and  C_11 
REMARK    2  A    between atoms: C_2  and  C_3 
REMARK    3  A    between atoms: C_2  and  C_4 
REMARK    4  A    between atoms: C_3  and  C_5 
REMARK    5  A    between atoms: C_8  and  C_11 
ROOT
ATOM      1  C   UNL d   1       0.741  -1.289  -1.126  0.00  0.00     0.037 C 
ENDROOT
BRANCH   1   2
ATOM      2  C   UNL d   1      -0.787  -1.170  -1.255  0.00  0.00     0.031 C 
BRANCH   2   3
ATOM      3  C   UNL d   1      -1.301   0.195  -0.881  0.00  0.00    -0.024 C 
ATOM      4  C   UNL d   1      -2.235   0.508   0.035  0.00  0.00    -0.091 C 
ATOM      5  C   UNL d   1      -2.619   1.946   0.271  0.00  0.00     0.042 C 
ATOM      6  C   UNL d   1      -2.978  -0.476   0.897  0.00  0.00     0.042 C 
ENDBRANCH   2   3
ENDBRANCH   1   2
BRANCH   1   7
ATOM      7  C   UNL d   1       1.270  -1.022   0.268  0.00  0.00    -0.085 C 
ATOM      8  C   UNL d   1       0.789  -1.978   1.331  0.00  0.00     0.043 C 
ATOM      9  C   UNL d   1       2.118  -0.022   0.591  0.00  0.00     0.001 C 
BRANCH   9  10
ATOM     10  C   UNL d   1       2.705   1.022  -0.302  0.00  0.00     0.191 C 
BRANCH  10  11
ATOM     11  O   UNL d   1       2.286   2.297   0.162  0.00  0.00    -0.397 OA
ATOM     12  H   UNL d   1       1.318   2.320   0.067  0.00  0.00     0.209 HD
ENDBRANCH  10  11
ENDBRANCH   9  10
ENDBRANCH   1   7
TORSDOF 5
