REMARK  4 active torsions:
REMARK  status: ('A' for Active; 'I' for Inactive)
REMARK    1  A    between atoms: C_2  and  C_3 
REMARK    2  A    between atoms: C_2  and  C_4 
REMARK    3  A    between atoms: C_3  and  C_5 
REMARK    4  A    between atoms: C_8  and  C_11 
ROOT
ATOM      1  C   UNL d   1      -0.247   1.769   0.697  0.00  0.00     0.037 C 
ENDROOT
BRANCH   1   2
ATOM      2  C   UNL d   1       1.261   1.608   0.435  0.00  0.00     0.031 C 
BRANCH   2   3
ATOM      3  C   UNL d   1       1.776   0.243   0.806  0.00  0.00    -0.024 C 
ATOM      4  C   UNL d   1       2.423  -0.645   0.026  0.00  0.00    -0.091 C 
ATOM      5  C   UNL d   1       2.850  -1.980   0.584  0.00  0.00     0.042 C 
ATOM      6  C   UNL d   1       2.789  -0.443  -1.419  0.00  0.00     0.042 C 
ENDBRANCH   2   3
ENDBRANCH   1   2
BRANCH   1   7
ATOM      7  C   UNL d   1      -1.132   0.838  -0.110  0.00  0.00    -0.081 C 
ATOM      8  C   UNL d   1      -1.022   0.968  -1.606  0.00  0.00     0.043 C 
ATOM      9  C   UNL d   1      -1.985  -0.000   0.512  0.00  0.00     0.043 C 
BRANCH   9  10
ATOM     10  C   UNL d   1      -2.848  -0.971  -0.194  0.00  0.00     0.259 C 
ATOM     11  O   UNL d   1      -3.823  -1.476   0.351  0.00  0.00    -0.302 OA
ENDBRANCH   9  10
ENDBRANCH   1   7
TORSDOF 4
