REMARK  2 active torsions:
REMARK  status: ('A' for Active; 'I' for Inactive)
REMARK    1  A    between atoms: O_1  and  C_12 
REMARK    2  A    between atoms: O_4  and  C_14 
ROOT
ATOM      1  O   UNL d   1      -0.600  -2.415   0.001  0.00  0.00    -0.286 OA
ATOM      2  O   UNL d   1       0.053   2.878   0.007  0.00  0.00    -0.287 OA
ATOM      3  C   UNL d   1       1.103   0.776   0.000  0.00  0.00     0.032 A 
ATOM      4  C   UNL d   1       0.959  -0.614  -0.000  0.00  0.00     0.062 A 
ATOM      5  C   UNL d   1      -1.585  -0.323   0.002  0.00  0.00     0.062 A 
ATOM      6  C   UNL d   1      -1.432   1.061   0.002  0.00  0.00     0.032 A 
ATOM      7  C   UNL d   1      -0.400  -1.203   0.001  0.00  0.00     0.199 A 
ATOM      8  C   UNL d   1      -0.083   1.661   0.003  0.00  0.00     0.194 A 
ATOM      9  C   UNL d   1       2.381   1.358  -0.004  0.00  0.00     0.023 A 
ATOM     10  C   UNL d   1       2.112  -1.413   0.001  0.00  0.00     0.081 A 
ATOM     11  C   UNL d   1       3.528   0.555  -0.021  0.00  0.00    -0.058 A 
ATOM     12  C   UNL d   1      -2.878  -0.870   0.001  0.00  0.00     0.080 A 
ATOM     13  C   UNL d   1       3.383  -0.835  -0.003  0.00  0.00     0.044 A 
ATOM     14  C   UNL d   1      -2.561   1.894   0.002  0.00  0.00     0.017 A 
ATOM     15  C   UNL d   1      -4.000  -0.046   0.001  0.00  0.00     0.037 A 
ATOM     16  C   UNL d   1      -3.842   1.339   0.002  0.00  0.00     0.004 A 
ATOM     17  C   UNL d   1       4.896   1.168   0.002  0.00  0.00     0.048 C 
ENDROOT
BRANCH  10  18
ATOM     18  O   UNL d   1       2.022  -2.776   0.006  0.00  0.00    -0.360 OA
ATOM     19  H   UNL d   1       2.904  -3.179  -0.002  0.00  0.00     0.217 HD
ENDBRANCH  10  18
BRANCH  12  20
ATOM     20  O   UNL d   1      -3.120  -2.218   0.000  0.00  0.00    -0.360 OA
ATOM     21  H   UNL d   1      -2.249  -2.681   0.000  0.00  0.00     0.217 HD
ENDBRANCH  12  20
TORSDOF 2
