REMARK  4 active torsions:
REMARK  status: ('A' for Active; 'I' for Inactive)
REMARK    1  A    between atoms: O_1  and  C_13 
REMARK    2  A    between atoms: O_4  and  C_16 
REMARK    3  A    between atoms: O_5  and  C_18 
REMARK    4  A    between atoms: C_14  and  C_18 
ROOT
ATOM      1  O   UNL d   1      -1.010  -2.414   0.046  0.00  0.00    -0.286 OA
ATOM      2  O   UNL d   1      -0.034   2.831  -0.137  0.00  0.00    -0.287 OA
ATOM      3  C   UNL d   1       0.877   0.662  -0.123  0.00  0.00     0.032 A 
ATOM      4  C   UNL d   1       0.643  -0.716  -0.076  0.00  0.00     0.062 A 
ATOM      5  C   UNL d   1      -1.867  -0.265   0.026  0.00  0.00     0.062 A 
ATOM      6  C   UNL d   1      -1.629   1.109  -0.021  0.00  0.00     0.032 A 
ATOM      7  C   UNL d   1      -0.744  -1.217   0.001  0.00  0.00     0.199 A 
ATOM      8  C   UNL d   1      -0.247   1.626  -0.097  0.00  0.00     0.194 A 
ATOM      9  C   UNL d   1       2.189   1.151  -0.199  0.00  0.00     0.026 A 
ATOM     10  C   UNL d   1       1.733  -1.597  -0.102  0.00  0.00     0.081 A 
ATOM     11  C   UNL d   1       3.272   0.264  -0.236  0.00  0.00    -0.031 A 
ATOM     12  C   UNL d   1       3.035  -1.112  -0.176  0.00  0.00     0.046 A 
ATOM     13  C   UNL d   1      -3.186  -0.734   0.099  0.00  0.00     0.080 A 
ATOM     14  C   UNL d   1      -2.702   2.007   0.004  0.00  0.00     0.017 A 
ATOM     15  C   UNL d   1      -4.252   0.160   0.123  0.00  0.00     0.037 A 
ATOM     16  C   UNL d   1      -4.013   1.535   0.075  0.00  0.00     0.004 A 
ENDROOT
BRANCH  11  17
ATOM     17  C   UNL d   1       4.681   0.775  -0.301  0.00  0.00     0.203 C 
BRANCH  17  18
ATOM     18  O   UNL d   1       5.177   0.964   1.013  0.00  0.00    -0.396 OA
ATOM     19  H   UNL d   1       4.509   1.467   1.510  0.00  0.00     0.209 HD
ENDBRANCH  17  18
ENDBRANCH  11  17
BRANCH  10  20
ATOM     20  O   UNL d   1       1.558  -2.950  -0.059  0.00  0.00    -0.360 OA
ATOM     21  H   UNL d   1       2.415  -3.405  -0.084  0.00  0.00     0.217 HD
ENDBRANCH  10  20
BRANCH  13  22
ATOM     22  O   UNL d   1      -3.510  -2.063   0.151  0.00  0.00    -0.360 OA
ATOM     23  H   UNL d   1      -2.673  -2.586   0.128  0.00  0.00     0.217 HD
ENDBRANCH  13  22
TORSDOF 4
