REMARK  6 active torsions:
REMARK  status: ('A' for Active; 'I' for Inactive)
REMARK    1  A    between atoms: O_2  and  C_12 
REMARK    2  A    between atoms: O_3  and  C_14 
REMARK    3  A    between atoms: O_5  and  C_16 
REMARK    4  A    between atoms: O_6  and  C_20 
REMARK    5  A    between atoms: O_7  and  C_22 
REMARK    6  A    between atoms: C_10  and  C_11 
ROOT
ATOM      1  O   UNL d   1      -0.325  -0.867  -0.118  0.00  0.00    -0.306 OA
ATOM      2  O   UNL d   1      -2.059   2.812   0.083  0.00  0.00    -0.284 OA
ATOM      3  C   UNL d   1      -2.334   0.492   0.024  0.00  0.00     0.084 A 
ATOM      4  C   UNL d   1      -1.688  -0.740  -0.049  0.00  0.00     0.096 A 
ATOM      5  C   UNL d   1       0.444   0.284  -0.115  0.00  0.00     0.123 A 
ATOM      6  C   UNL d   1      -0.037   1.539  -0.054  0.00  0.00     0.152 A 
ATOM      7  C   UNL d   1      -1.513   1.713   0.023  0.00  0.00     0.223 A 
ATOM      8  C   UNL d   1      -3.728   0.548   0.093  0.00  0.00     0.085 A 
ATOM      9  C   UNL d   1      -2.437  -1.918  -0.058  0.00  0.00     0.075 A 
ATOM     10  C   UNL d   1      -3.826  -1.849   0.011  0.00  0.00     0.071 A 
ATOM     11  C   UNL d   1      -4.483  -0.626   0.086  0.00  0.00     0.074 A 
ENDROOT
BRANCH   5  12
ATOM     12  C   UNL d   1       1.884  -0.001  -0.190  0.00  0.00     0.004 A 
ATOM     13  C   UNL d   1       2.636  -0.171   0.981  0.00  0.00     0.053 A 
ATOM     14  C   UNL d   1       4.004  -0.406   0.894  0.00  0.00     0.099 A 
ATOM     15  C   UNL d   1       4.630  -0.484  -0.347  0.00  0.00     0.098 A 
ATOM     16  C   UNL d   1       3.896  -0.316  -1.515  0.00  0.00     0.040 A 
ATOM     17  C   UNL d   1       2.521  -0.077  -1.439  0.00  0.00     0.017 A 
BRANCH  14  18
ATOM     18  O   UNL d   1       4.707  -0.538   2.057  0.00  0.00    -0.358 OA
ATOM     19  H   UNL d   1       5.611  -0.219   1.896  0.00  0.00     0.217 HD
ENDBRANCH  14  18
BRANCH  15  20
ATOM     20  O   UNL d   1       5.966  -0.734  -0.458  0.00  0.00    -0.358 OA
ATOM     21  H   UNL d   1       6.217  -1.322   0.276  0.00  0.00     0.217 HD
ENDBRANCH  15  20
ENDBRANCH   5  12
BRANCH   6  22
ATOM     22  O   UNL d   1       0.743   2.684  -0.057  0.00  0.00    -0.355 OA
ATOM     23  H   UNL d   1       1.680   2.435  -0.110  0.00  0.00     0.218 HD
ENDBRANCH   6  22
BRANCH   8  24
ATOM     24  O   UNL d   1      -4.428   1.722   0.168  0.00  0.00    -0.360 OA
ATOM     25  H   UNL d   1      -3.780   2.465   0.162  0.00  0.00     0.217 HD
ENDBRANCH   8  24
BRANCH  10  26
ATOM     26  O   UNL d   1      -4.521  -3.023   0.002  0.00  0.00    -0.361 OA
ATOM     27  H   UNL d   1      -5.471  -2.826   0.058  0.00  0.00     0.217 HD
ENDBRANCH  10  26
TORSDOF 6
