REMARK  0 active torsions:
REMARK  status: ('A' for Active; 'I' for Inactive)
ROOT
ATOM      1  C   UNL d   1      -2.380  -0.025  -0.021  0.00  0.00    -0.027 C 
ATOM      2  C   UNL d   1      -1.823   1.427  -0.255  0.00  0.00     0.040 C 
ATOM      3  C   UNL d   1      -1.290  -1.036  -0.391  0.00  0.00    -0.021 C 
ATOM      4  C   UNL d   1      -3.615  -0.224  -0.924  0.00  0.00     0.019 C 
ATOM      5  C   UNL d   1      -2.846  -0.175   1.443  0.00  0.00     0.019 C 
ATOM      6  C   UNL d   1      -0.517   1.696   0.464  0.00  0.00    -0.023 C 
ATOM      7  C   UNL d   1       0.701   1.933  -0.074  0.00  0.00    -0.087 C 
ATOM      8  C   UNL d   1       1.938   1.914   0.818  0.00  0.00     0.037 C 
ATOM      9  C   UNL d   1      -0.683  -1.901   0.447  0.00  0.00    -0.026 C 
ATOM     10  C   UNL d   1       2.815   0.651   0.634  0.00  0.00     0.031 C 
ATOM     11  C   UNL d   1       0.631  -2.585   0.158  0.00  0.00     0.060 C 
ATOM     12  C   UNL d   1       1.741  -1.568  -0.100  0.00  0.00    -0.084 C 
ATOM     13  C   UNL d   1       2.009  -0.612   0.815  0.00  0.00    -0.024 C 
ATOM     14  C   UNL d   1       0.974   2.148  -1.536  0.00  0.00     0.043 C 
ATOM     15  C   UNL d   1       2.362  -1.662  -1.463  0.00  0.00     0.043 C 
ENDROOT
TORSDOF 0
