REMARK  13 active torsions:
REMARK  status: ('A' for Active; 'I' for Inactive)
REMARK    1  A    between atoms: O_1  and  C_27 
REMARK    2  A    between atoms: O_1  and  C_31 
REMARK    3  A    between atoms: O_3  and  C_34 
REMARK    4  A    between atoms: O_4  and  C_37 
REMARK    5  A    between atoms: O_5  and  C_40 
REMARK    6  A    between atoms: O_6  and  C_41 
REMARK    7  A    between atoms: C_11  and  C_18 
REMARK    8  A    between atoms: C_18  and  C_26 
REMARK    9  A    between atoms: C_26  and  C_29 
REMARK   10  A    between atoms: C_29  and  C_30 
REMARK   11  A    between atoms: C_30  and  C_32 
REMARK   12  A    between atoms: C_30  and  C_33 
REMARK   13  A    between atoms: C_39  and  C_41 
ROOT
ATOM      1  C   UNL d   1       2.306  -1.096  -0.109  0.00  0.00    -0.036 C 
ATOM      2  C   UNL d   1       1.854  -2.469   0.452  0.00  0.00    -0.001 C 
ATOM      3  C   UNL d   1       0.349  -2.698   0.606  0.00  0.00    -0.001 C 
ATOM      4  C   UNL d   1      -0.357  -2.410  -0.755  0.00  0.00     0.003 C 
ATOM      5  C   UNL d   1       3.836  -1.379  -0.171  0.00  0.00    -0.002 C 
ATOM      6  C   UNL d   1       1.603  -0.906  -1.461  0.00  0.00     0.010 C 
ATOM      7  C   UNL d   1      -1.918  -2.654  -0.675  0.00  0.00    -0.017 C 
ATOM      8  C   UNL d   1       2.784  -2.714   1.635  0.00  0.00     0.006 C 
ATOM      9  C   UNL d   1       0.077  -1.052  -1.349  0.00  0.00     0.007 C 
ATOM     10  C   UNL d   1       4.120  -2.107   1.173  0.00  0.00     0.006 C 
ATOM     11  C   UNL d   1      -0.295  -1.998   1.805  0.00  0.00     0.033 C 
ATOM     12  C   UNL d   1       2.030   0.140   0.782  0.00  0.00     0.016 C 
ATOM     13  C   UNL d   1      -2.524  -2.196   0.650  0.00  0.00    -0.072 C 
ATOM     14  C   UNL d   1      -2.653  -1.952  -1.852  0.00  0.00     0.016 C 
ATOM     15  C   UNL d   1      -1.780  -1.896   1.730  0.00  0.00    -0.023 C 
ATOM     16  C   UNL d   1      -2.153  -4.185  -0.781  0.00  0.00     0.020 C 
ATOM     17  C   UNL d   1      -4.035  -2.133   0.744  0.00  0.00     0.066 C 
ATOM     18  C   UNL d   1      -4.181  -2.023  -1.777  0.00  0.00     0.033 C 
ATOM     19  C   UNL d   1      -4.704  -1.455  -0.453  0.00  0.00     0.128 C 
ENDROOT
BRANCH  19  20
ATOM     20  O   UNL d   1      -4.463  -0.043  -0.393  0.00  0.00    -0.353 OA
BRANCH  20  21
ATOM     21  C   UNL d   1      -5.527   0.708  -0.960  0.00  0.00     0.292 C 
ATOM     22  O   UNL d   1      -6.553   0.976  -0.018  0.00  0.00    -0.348 OA
ATOM     23  C   UNL d   1      -6.117   1.813   1.071  0.00  0.00     0.179 C 
ATOM     24  C   UNL d   1      -5.674   3.181   0.550  0.00  0.00     0.180 C 
ATOM     25  C   UNL d   1      -4.609   3.030  -0.544  0.00  0.00     0.183 C 
ATOM     26  C   UNL d   1      -5.028   2.011  -1.602  0.00  0.00     0.204 C 
BRANCH  23  27
ATOM     27  C   UNL d   1      -7.294   1.946   2.039  0.00  0.00     0.198 C 
BRANCH  27  28
ATOM     28  O   UNL d   1      -7.654   0.647   2.520  0.00  0.00    -0.398 OA
ATOM     29  H   UNL d   1      -8.418   0.757   3.087  0.00  0.00     0.209 HD
ENDBRANCH  27  28
ENDBRANCH  23  27
BRANCH  24  30
ATOM     30  O   UNL d   1      -5.181   4.008   1.607  0.00  0.00    -0.390 OA
ATOM     31  H   UNL d   1      -4.826   4.813   1.180  0.00  0.00     0.210 HD
ENDBRANCH  24  30
BRANCH  25  32
ATOM     32  O   UNL d   1      -4.415   4.337  -1.136  0.00  0.00    -0.390 OA
ATOM     33  H   UNL d   1      -5.233   4.567  -1.613  0.00  0.00     0.210 HD
ENDBRANCH  25  32
BRANCH  26  34
ATOM     34  O   UNL d   1      -3.959   1.787  -2.528  0.00  0.00    -0.388 OA
ATOM     35  H   UNL d   1      -4.232   1.079  -3.133  0.00  0.00     0.210 HD
ENDBRANCH  26  34
ENDBRANCH  20  21
ENDBRANCH  19  20
BRANCH   5  36
ATOM     36  C   UNL d   1       4.790  -0.184  -0.430  0.00  0.00    -0.014 C 
ATOM     37  C   UNL d   1       4.418   0.522  -1.737  0.00  0.00     0.010 C 
BRANCH  36  38
ATOM     38  C   UNL d   1       6.255  -0.679  -0.441  0.00  0.00     0.005 C 
BRANCH  38  39
ATOM     39  C   UNL d   1       7.319   0.385  -0.746  0.00  0.00     0.005 C 
BRANCH  39  40
ATOM     40  C   UNL d   1       7.409   1.572   0.247  0.00  0.00    -0.012 C 
BRANCH  40  41
ATOM     41  C   UNL d   1       8.423   2.661  -0.231  0.00  0.00    -0.019 C 
ATOM     42  C   UNL d   1       8.058   3.230  -1.609  0.00  0.00     0.010 C 
ATOM     43  C   UNL d   1       9.881   2.192  -0.242  0.00  0.00     0.010 C 
ENDBRANCH  40  41
BRANCH  40  44
ATOM     44  C   UNL d   1       7.708   1.053   1.676  0.00  0.00     0.000 C 
ATOM     45  C   UNL d   1       7.779   2.137   2.742  0.00  0.00     0.005 C 
ENDBRANCH  40  44
ENDBRANCH  39  40
ENDBRANCH  38  39
ENDBRANCH  36  38
ENDBRANCH   5  36
TORSDOF 13
