REMARK  5 active torsions:
REMARK  status: ('A' for Active; 'I' for Inactive)
REMARK    1  A    between atoms: C_2  and  C_3 
REMARK    2  A    between atoms: C_2  and  C_5 
REMARK    3  A    between atoms: C_3  and  C_4 
REMARK    4  A    between atoms: C_4  and  C_7 
REMARK    5  A    between atoms: C_5  and  C_9 
ROOT
ATOM      1  C   UNL d   1       0.062  -0.107   0.352  0.00  0.00     0.008 C 
ENDROOT
BRANCH   1   2
ATOM      2  C   UNL d   1       1.448  -0.221  -0.317  0.00  0.00    -0.012 C 
ATOM      3  C   UNL d   1       1.956  -1.667  -0.329  0.00  0.00     0.010 C 
BRANCH   2   4
ATOM      4  C   UNL d   1       2.431   0.703   0.422  0.00  0.00     0.073 C 
BRANCH   4   5
ATOM      5  C   UNL d   1       3.789   0.736  -0.231  0.00  0.00     0.231 C 
ATOM      6  O   UNL d   1       4.829   0.484   0.368  0.00  0.00    -0.307 OA
ENDBRANCH   4   5
ENDBRANCH   2   4
ENDBRANCH   1   2
BRANCH   1   7
ATOM      7  C   UNL d   1      -1.039  -0.907  -0.349  0.00  0.00     0.027 C 
BRANCH   7   8
ATOM      8  C   UNL d   1      -2.368  -0.703   0.325  0.00  0.00    -0.025 C 
ATOM      9  C   UNL d   1      -3.300   0.219   0.015  0.00  0.00    -0.091 C 
ATOM     10  C   UNL d   1      -4.604   0.283   0.765  0.00  0.00     0.042 C 
ATOM     11  C   UNL d   1      -3.144   1.262  -1.057  0.00  0.00     0.042 C 
ENDBRANCH   7   8
ENDBRANCH   1   7
TORSDOF 5
