REMARK  5 active torsions:
REMARK  status: ('A' for Active; 'I' for Inactive)
REMARK    1  A    between atoms: O_1  and  C_6 
REMARK    2  A    between atoms: O_2  and  C_8 
REMARK    3  A    between atoms: O_3  and  C_12 
REMARK    4  A    between atoms: C_4  and  C_10 
REMARK    5  A    between atoms: C_11  and  C_12 
ROOT
ATOM      1  C   UNL d   1       0.491  -0.705   0.018  0.00  0.00    -0.034 A 
ATOM      2  C   UNL d   1      -0.176   0.506  -0.209  0.00  0.00     0.051 A 
ATOM      3  C   UNL d   1      -1.572   0.554  -0.235  0.00  0.00     0.102 A 
ATOM      4  C   UNL d   1      -0.276  -1.872   0.167  0.00  0.00     0.014 A 
ATOM      5  C   UNL d   1      -2.321  -0.612  -0.078  0.00  0.00     0.099 A 
ATOM      6  C   UNL d   1      -1.675  -1.829   0.120  0.00  0.00     0.040 A 
ENDROOT
BRANCH   1   7
ATOM      7  C   UNL d   1       1.959  -0.810   0.057  0.00  0.00     0.009 C 
ATOM      8  C   UNL d   1       2.799   0.203   0.333  0.00  0.00    -0.000 C 
BRANCH   8   9
ATOM      9  C   UNL d   1       4.284   0.070   0.388  0.00  0.00     0.191 C 
BRANCH   9  10
ATOM     10  O   UNL d   1       4.847   0.937  -0.583  0.00  0.00    -0.397 OA
ATOM     11  H   UNL d   1       4.469   0.680  -1.441  0.00  0.00     0.209 HD
ENDBRANCH   9  10
ENDBRANCH   8   9
ENDBRANCH   1   7
BRANCH   3  12
ATOM     12  O   UNL d   1      -2.175   1.753  -0.510  0.00  0.00    -0.353 OA
ATOM     13  C   UNL d   1      -2.483   2.437   0.703  0.00  0.00     0.210 C 
ENDBRANCH   3  12
BRANCH   5  14
ATOM     14  O   UNL d   1      -3.684  -0.547  -0.124  0.00  0.00    -0.358 OA
ATOM     15  H   UNL d   1      -4.043  -1.448  -0.079  0.00  0.00     0.217 HD
ENDBRANCH   5  14
TORSDOF 5
