REMARK  0 active torsions:
REMARK  status: ('A' for Active; 'I' for Inactive)
ROOT
ATOM      1  C   UNL d   1       0.729  -0.042  -0.470  0.00  0.00     0.004 A 
ATOM      2  C   UNL d   1       2.126   0.527  -0.234  0.00  0.00    -0.039 A 
ATOM      3  C   UNL d   1       0.933   1.457  -0.442  0.00  0.00    -0.001 A 
ATOM      4  C   UNL d   1      -0.138  -0.655   0.602  0.00  0.00     0.002 C 
ATOM      5  C   UNL d   1      -1.633  -0.300   0.406  0.00  0.00     0.018 C 
ATOM      6  C   UNL d   1       0.347   2.288   0.661  0.00  0.00     0.010 C 
ATOM      7  C   UNL d   1      -0.152  -2.194   0.601  0.00  0.00    -0.013 C 
ATOM      8  C   UNL d   1       2.792   0.406   1.116  0.00  0.00     0.015 C 
ATOM      9  C   UNL d   1       3.118   0.433  -1.371  0.00  0.00     0.015 C 
ATOM     10  C   UNL d   1      -2.134  -1.379  -0.578  0.00  0.00     0.010 C 
ATOM     11  C   UNL d   1      -1.204  -2.584  -0.435  0.00  0.00     0.005 C 
ATOM     12  C   UNL d   1      -1.188   2.244   0.772  0.00  0.00     0.034 C 
ATOM     13  C   UNL d   1      -1.937   1.149   0.031  0.00  0.00    -0.085 C 
ATOM     14  C   UNL d   1       1.191  -2.870   0.367  0.00  0.00     0.010 C 
ATOM     15  C   UNL d   1      -2.865   1.498  -0.880  0.00  0.00     0.014 C 
ENDROOT
TORSDOF 0
