REMARK  2 active torsions:
REMARK  status: ('A' for Active; 'I' for Inactive)
REMARK    1  A    between atoms: O_1  and  C_6 
REMARK    2  A    between atoms: C_2  and  C_3 
ROOT
ATOM      1  C   UNL d   1      -0.672  -0.031  -0.017  0.00  0.00    -0.022 A 
ATOM      2  C   UNL d   1       0.150   1.104  -0.027  0.00  0.00     0.072 A 
ATOM      3  C   UNL d   1      -0.039  -1.288  -0.005  0.00  0.00     0.011 A 
ATOM      4  C   UNL d   1       2.157  -0.257  -0.016  0.00  0.00    -0.059 A 
ATOM      5  C   UNL d   1       1.542   0.997  -0.003  0.00  0.00     0.043 A 
ATOM      6  C   UNL d   1       1.356  -1.400  -0.003  0.00  0.00     0.007 A 
ATOM      7  C   UNL d   1       3.652  -0.370   0.008  0.00  0.00     0.048 C 
ENDROOT
BRANCH   1   8
ATOM      8  C   UNL d   1      -2.190   0.053   0.002  0.00  0.00     0.013 C 
ATOM      9  C   UNL d   1      -2.781  -0.584   1.264  0.00  0.00     0.015 C 
ATOM     10  C   UNL d   1      -2.793  -0.569  -1.261  0.00  0.00     0.015 C 
ENDBRANCH   1   8
BRANCH   2  11
ATOM     11  O   UNL d   1      -0.340   2.379  -0.069  0.00  0.00    -0.360 OA
ATOM     12  H   UNL d   1      -1.148   2.371  -0.605  0.00  0.00     0.217 HD
ENDBRANCH   2  11
TORSDOF 2
