REMARK  0 active torsions:
REMARK  status: ('A' for Active; 'I' for Inactive)
ROOT
ATOM      1  C   UNL d   1      -0.897  -0.073   0.555  0.00  0.00     0.007 A 
ATOM      2  C   UNL d   1      -2.250   0.458   0.119  0.00  0.00    -0.039 A 
ATOM      3  C   UNL d   1      -1.157   1.414   0.547  0.00  0.00    -0.001 A 
ATOM      4  C   UNL d   1       0.093  -0.616  -0.441  0.00  0.00     0.023 C 
ATOM      5  C   UNL d   1      -0.429   2.268  -0.448  0.00  0.00     0.010 C 
ATOM      6  C   UNL d   1       0.190  -2.153  -0.472  0.00  0.00    -0.010 C 
ATOM      7  C   UNL d   1       1.513  -0.157  -0.144  0.00  0.00    -0.073 C 
ATOM      8  C   UNL d   1      -3.395   0.261   1.070  0.00  0.00     0.015 C 
ATOM      9  C   UNL d   1      -2.665   0.383  -1.321  0.00  0.00     0.015 C 
ATOM     10  C   UNL d   1       1.062   2.380  -0.134  0.00  0.00     0.034 C 
ATOM     11  C   UNL d   1       1.356  -2.460   0.456  0.00  0.00     0.009 C 
ATOM     12  C   UNL d   1       2.368  -1.375   0.108  0.00  0.00     0.035 C 
ATOM     13  C   UNL d   1       1.926   1.125  -0.030  0.00  0.00    -0.081 C 
ATOM     14  C   UNL d   1      -1.076  -2.926  -0.130  0.00  0.00     0.010 C 
ATOM     15  C   UNL d   1       3.370   1.469   0.259  0.00  0.00     0.043 C 
ENDROOT
TORSDOF 0
