REMARK  12 active torsions:
REMARK  status: ('A' for Active; 'I' for Inactive)
REMARK    1  A    between atoms: O_1  and  C_13 
REMARK    2  A    between atoms: C_2  and  C_3 
REMARK    3  A    between atoms: C_2  and  C_4 
REMARK    4  A    between atoms: C_3  and  C_5 
REMARK    5  A    between atoms: C_4  and  C_6 
REMARK    6  A    between atoms: C_5  and  C_7 
REMARK    7  A    between atoms: C_6  and  C_8 
REMARK    8  A    between atoms: C_7  and  C_9 
REMARK    9  A    between atoms: C_8  and  C_10 
REMARK   10  A    between atoms: C_9  and  C_11 
REMARK   11  A    between atoms: C_10  and  C_12 
REMARK   12  A    between atoms: C_11  and  C_13 
ROOT
ATOM      1  C   UNL d   1      -0.652   0.427  -0.065  0.00  0.00     0.000 C 
ENDROOT
BRANCH   1   2
ATOM      2  C   UNL d   1       0.631  -0.411  -0.068  0.00  0.00     0.000 C 
BRANCH   2   3
ATOM      3  C   UNL d   1       1.890   0.465  -0.056  0.00  0.00     0.000 C 
BRANCH   3   4
ATOM      4  C   UNL d   1       3.168  -0.383  -0.043  0.00  0.00     0.000 C 
BRANCH   4   5
ATOM      5  C   UNL d   1       4.434   0.482  -0.012  0.00  0.00     0.000 C 
BRANCH   5   6
ATOM      6  C   UNL d   1       5.706  -0.375   0.030  0.00  0.00    -0.000 C 
BRANCH   6   7
ATOM      7  C   UNL d   1       6.971   0.487   0.019  0.00  0.00    -0.005 C 
ATOM      8  C   UNL d   1       8.234  -0.355   0.126  0.00  0.00     0.005 C 
ENDBRANCH   6   7
ENDBRANCH   5   6
ENDBRANCH   4   5
ENDBRANCH   3   4
ENDBRANCH   2   3
ENDBRANCH   1   2
BRANCH   1   9
ATOM      9  C   UNL d   1      -1.908  -0.455  -0.059  0.00  0.00     0.000 C 
BRANCH   9  10
ATOM     10  C   UNL d   1      -3.188   0.388  -0.026  0.00  0.00     0.000 C 
BRANCH  10  11
ATOM     11  C   UNL d   1      -4.446  -0.488  -0.036  0.00  0.00     0.002 C 
BRANCH  11  12
ATOM     12  C   UNL d   1      -5.717   0.359   0.027  0.00  0.00     0.026 C 
BRANCH  12  13
ATOM     13  C   UNL d   1      -6.972  -0.503   0.044  0.00  0.00     0.164 C 
BRANCH  13  14
ATOM     14  O   UNL d   1      -8.114   0.344   0.111  0.00  0.00    -0.401 OA
ATOM     15  H   UNL d   1      -8.896  -0.233   0.128  0.00  0.00     0.209 HD
ENDBRANCH  13  14
ENDBRANCH  12  13
ENDBRANCH  11  12
ENDBRANCH  10  11
ENDBRANCH   9  10
ENDBRANCH   1   9
TORSDOF 12
