REMARK  2 active torsions:
REMARK  status: ('A' for Active; 'I' for Inactive)
REMARK    1  A    between atoms: O_1  and  C_5 
REMARK    2  A    between atoms: C_8  and  C_12 
ROOT
ATOM      1  C   UNL d   1      -0.733  -0.704  -0.524  0.00  0.00    -0.026 A 
ATOM      2  C   UNL d   1      -0.840   0.321   0.562  0.00  0.00     0.034 A 
ATOM      3  C   UNL d   1       0.371   0.331  -0.357  0.00  0.00     0.007 A 
ATOM      4  C   UNL d   1      -2.046   1.184   0.298  0.00  0.00     0.059 C 
ATOM      5  C   UNL d   1      -0.427  -2.163  -0.247  0.00  0.00    -0.009 C 
ATOM      6  C   UNL d   1      -1.825  -0.409  -1.543  0.00  0.00     0.014 C 
ATOM      7  C   UNL d   1       1.724  -0.012   0.238  0.00  0.00    -0.006 C 
ATOM      8  C   UNL d   1      -2.318   1.009  -1.210  0.00  0.00     0.038 C 
ATOM      9  C   UNL d   1       0.863  -2.362   0.563  0.00  0.00     0.005 C 
ATOM     10  C   UNL d   1       2.011  -1.510   0.030  0.00  0.00     0.006 C 
ATOM     11  C   UNL d   1      -3.239   0.752   1.148  0.00  0.00     0.046 C 
ATOM     12  C   UNL d   1      -1.581  -2.873   0.468  0.00  0.00     0.011 C 
ENDROOT
BRANCH   4  13
ATOM     13  O   UNL d   1      -1.723   2.533   0.594  0.00  0.00    -0.390 OA
ATOM     14  H   UNL d   1      -2.478   3.080   0.321  0.00  0.00     0.210 HD
ENDBRANCH   4  13
BRANCH   7  15
ATOM     15  C   UNL d   1       2.860   0.890  -0.334  0.00  0.00    -0.018 C 
ATOM     16  C   UNL d   1       2.594   2.381  -0.071  0.00  0.00     0.010 C 
ATOM     17  C   UNL d   1       4.231   0.537   0.257  0.00  0.00     0.010 C 
ENDBRANCH   7  15
TORSDOF 2
