REMARK  3 active torsions:
REMARK  status: ('A' for Active; 'I' for Inactive)
REMARK    1  A    between atoms: O_3  and  C_19 
REMARK    2  A    between atoms: O_4  and  C_15 
REMARK    3  A    between atoms: C_5  and  C_7 
ROOT
ATOM      1  O   UNL d   1      -1.751   1.850  -0.054  0.00  0.00    -0.321 OA
ATOM      2  O   UNL d   1      -0.306  -1.968   0.044  0.00  0.00    -0.286 OA
ATOM      3  C   UNL d   1       0.163   0.368   0.057  0.00  0.00     0.048 A 
ATOM      4  C   UNL d   1      -2.176  -0.541  -0.006  0.00  0.00     0.049 A 
ATOM      5  C   UNL d   1      -0.731  -0.819   0.034  0.00  0.00     0.197 A 
ATOM      6  C   UNL d   1      -2.613   0.782  -0.047  0.00  0.00     0.091 A 
ATOM      7  C   UNL d   1      -0.405   1.581   0.006  0.00  0.00     0.159 A 
ATOM      8  C   UNL d   1      -3.099  -1.593   0.001  0.00  0.00     0.021 A 
ATOM      9  C   UNL d   1      -3.979   1.062  -0.081  0.00  0.00     0.074 A 
ATOM     10  C   UNL d   1      -4.893   0.012  -0.071  0.00  0.00     0.068 A 
ATOM     11  C   UNL d   1      -4.467  -1.314  -0.030  0.00  0.00     0.037 A 
ENDROOT
BRANCH   3  12
ATOM     12  C   UNL d   1       1.619   0.233   0.105  0.00  0.00    -0.020 A 
ATOM     13  C   UNL d   1       2.296   0.185   1.330  0.00  0.00     0.015 A 
ATOM     14  C   UNL d   1       3.688   0.058   1.359  0.00  0.00     0.037 A 
ATOM     15  C   UNL d   1       4.417  -0.018   0.168  0.00  0.00     0.068 A 
ATOM     16  C   UNL d   1       3.740   0.034  -1.050  0.00  0.00     0.037 A 
ATOM     17  C   UNL d   1       2.348   0.161  -1.084  0.00  0.00     0.015 A 
BRANCH  15  18
ATOM     18  O   UNL d   1       5.774  -0.141   0.308  0.00  0.00    -0.356 OA
ATOM     19  C   UNL d   1       6.517  -0.226  -0.905  0.00  0.00     0.210 C 
ENDBRANCH  15  18
ENDBRANCH   3  12
BRANCH  10  20
ATOM     20  O   UNL d   1      -6.220   0.324  -0.100  0.00  0.00    -0.361 OA
ATOM     21  H   UNL d   1      -6.737  -0.498  -0.087  0.00  0.00     0.217 HD
ENDBRANCH  10  20
TORSDOF 3
