REMARK  0 active torsions:
REMARK  status: ('A' for Active; 'I' for Inactive)
ROOT
ATOM      1  O   UNL d   1       0.524   2.099  -0.645  0.00  0.00    -0.293 OA
ATOM      2  C   UNL d   1      -2.253  -0.094  -0.198  0.00  0.00    -0.011 C 
ATOM      3  C   UNL d   1      -1.522  -1.401   0.118  0.00  0.00     0.009 C 
ATOM      4  C   UNL d   1      -1.437   1.100   0.294  0.00  0.00     0.088 C 
ATOM      5  C   UNL d   1      -0.149  -1.433  -0.553  0.00  0.00     0.043 C 
ATOM      6  C   UNL d   1       0.707  -0.246  -0.190  0.00  0.00    -0.011 C 
ATOM      7  C   UNL d   1      -0.020   1.073  -0.240  0.00  0.00     0.156 C 
ATOM      8  C   UNL d   1      -3.647  -0.090   0.425  0.00  0.00     0.010 C 
ATOM      9  C   UNL d   1       2.018  -0.300   0.144  0.00  0.00    -0.078 C 
ATOM     10  C   UNL d   1       2.819  -1.579   0.135  0.00  0.00     0.043 C 
ATOM     11  C   UNL d   1       2.825   0.910   0.549  0.00  0.00     0.043 C 
ENDROOT
TORSDOF 0
