REMARK  1 active torsions:
REMARK  status: ('A' for Active; 'I' for Inactive)
REMARK    1  A    between atoms: O_1  and  C_20 
ROOT
ATOM      1  C   UNL d   1      -0.449   0.976  -0.101  0.00  0.00    -0.028 C 
ATOM      2  C   UNL d   1      -1.149  -0.387  -0.471  0.00  0.00     0.007 C 
ATOM      3  C   UNL d   1      -2.729  -0.360  -0.699  0.00  0.00    -0.035 C 
ATOM      4  C   UNL d   1       1.064   0.642   0.447  0.00  0.00    -0.013 C 
ATOM      5  C   UNL d   1      -3.368   0.366   0.542  0.00  0.00     0.004 C 
ATOM      6  C   UNL d   1      -1.286   1.734   0.968  0.00  0.00     0.011 C 
ATOM      7  C   UNL d   1       1.809  -0.267  -0.560  0.00  0.00    -0.069 C 
ATOM      8  C   UNL d   1       3.350  -0.318  -0.572  0.00  0.00     0.027 C 
ATOM      9  C   UNL d   1      -2.791   1.788   0.694  0.00  0.00     0.007 C 
ATOM     10  C   UNL d   1       3.959   1.111  -0.453  0.00  0.00    -0.036 C 
ATOM     11  C   UNL d   1      -4.933   0.260   0.681  0.00  0.00    -0.017 C 
ATOM     12  C   UNL d   1       1.847   1.963   0.723  0.00  0.00     0.015 C 
ATOM     13  C   UNL d   1      -0.357  -1.127  -1.572  0.00  0.00     0.033 C 
ATOM     14  C   UNL d   1      -3.244  -1.831  -0.715  0.00  0.00     0.012 C 
ATOM     15  C   UNL d   1       3.371   1.815   0.791  0.00  0.00     0.011 C 
ATOM     16  C   UNL d   1      -0.376   1.904  -1.353  0.00  0.00     0.016 C 
ATOM     17  C   UNL d   1       1.134  -1.022  -1.450  0.00  0.00    -0.022 C 
ATOM     18  C   UNL d   1       3.954  -1.347   0.452  0.00  0.00    -0.006 C 
ATOM     19  C   UNL d   1      -5.338  -1.244   0.590  0.00  0.00     0.126 C 
ATOM     20  C   UNL d   1      -3.130   0.287  -2.049  0.00  0.00     0.016 C 
ATOM     21  C   UNL d   1       1.022  -0.141   1.794  0.00  0.00     0.021 C 
ATOM     22  C   UNL d   1      -4.759  -1.966  -0.622  0.00  0.00     0.033 C 
ATOM     23  C   UNL d   1       5.502   1.058  -0.359  0.00  0.00     0.010 C 
ATOM     24  C   UNL d   1       5.505  -1.339   0.408  0.00  0.00    -0.014 C 
ATOM     25  C   UNL d   1       6.033   0.075   0.671  0.00  0.00     0.005 C 
ATOM     26  C   UNL d   1       3.645   1.938  -1.728  0.00  0.00     0.016 C 
ATOM     27  C   UNL d   1      -5.712   1.118  -0.335  0.00  0.00     0.018 C 
ATOM     28  C   UNL d   1      -5.360   0.773   2.085  0.00  0.00     0.018 C 
ATOM     29  C   UNL d   1       3.403  -2.764   0.221  0.00  0.00     0.011 C 
ATOM     30  C   UNL d   1       6.144  -2.297   1.421  0.00  0.00     0.010 C 
ENDROOT
BRANCH  19  31
ATOM     31  O   UNL d   1      -6.758  -1.398   0.558  0.00  0.00    -0.395 OA
ATOM     32  H   UNL d   1      -6.945  -2.357   0.559  0.00  0.00     0.210 HD
ENDBRANCH  19  31
TORSDOF 1
