REMARK  1 active torsions:
REMARK  status: ('A' for Active; 'I' for Inactive)
REMARK    1  A    between atoms: O_1  and  C_2 
ROOT
ATOM      1  C   UNL d   1       0.574  -0.224  -0.000  0.00  0.00     0.068 A 
ATOM      2  C   UNL d   1       0.125   1.097  -0.000  0.00  0.00     0.037 A 
ATOM      3  C   UNL d   1      -0.362  -1.263   0.001  0.00  0.00     0.037 A 
ATOM      4  C   UNL d   1      -1.246   1.374   0.000  0.00  0.00     0.003 A 
ATOM      5  C   UNL d   1      -1.731  -0.987   0.001  0.00  0.00     0.003 A 
ATOM      6  C   UNL d   1      -2.173   0.333   0.001  0.00  0.00     0.000 A 
ENDROOT
BRANCH   1   7
ATOM      7  O   UNL d   1       1.881  -0.629  -0.000  0.00  0.00    -0.356 OA
ATOM      8  C   UNL d   1       2.866   0.396  -0.000  0.00  0.00     0.210 C 
ENDBRANCH   1   7
TORSDOF 1
