REMARK  1 active torsions:
REMARK  status: ('A' for Active; 'I' for Inactive)
REMARK    1  A    between atoms: C_2  and  C_3 
ROOT
ATOM      1  O   UNL d   1      -0.427  -2.341  -0.538  0.00  0.00    -0.293 OA
ATOM      2  C   UNL d   1      -0.809   0.042  -0.693  0.00  0.00     0.063 C 
ATOM      3  C   UNL d   1       0.136   1.147  -1.192  0.00  0.00     0.017 C 
ATOM      4  C   UNL d   1       1.272   1.436  -0.211  0.00  0.00     0.034 C 
ATOM      5  C   UNL d   1       0.021  -1.204  -0.400  0.00  0.00     0.154 C 
ATOM      6  C   UNL d   1       1.960   0.176   0.249  0.00  0.00    -0.080 C 
ATOM      7  C   UNL d   1       1.395  -1.038   0.138  0.00  0.00     0.053 C 
ATOM      8  C   UNL d   1       3.330   0.350   0.834  0.00  0.00     0.043 C 
ENDROOT
BRANCH   2   9
ATOM      9  C   UNL d   1      -1.669   0.438   0.533  0.00  0.00    -0.011 C 
ATOM     10  C   UNL d   1      -2.485   1.708   0.263  0.00  0.00     0.010 C 
ATOM     11  C   UNL d   1      -2.625  -0.693   0.938  0.00  0.00     0.010 C 
ENDBRANCH   2   9
TORSDOF 1
