REMARK  1 active torsions:
REMARK  status: ('A' for Active; 'I' for Inactive)
REMARK    1  A    between atoms: C_1  and  C_2 
ROOT
ATOM      1  C   UNL d   1      -1.188   0.798  -0.670  0.00  0.00     0.026 C 
ATOM      2  C   UNL d   1      -2.071  -0.331  -1.248  0.00  0.00     0.037 C 
ATOM      3  C   UNL d   1       0.207   0.242  -0.401  0.00  0.00    -0.042 A 
ATOM      4  C   UNL d   1       0.371  -1.091   0.033  0.00  0.00    -0.024 A 
ATOM      5  C   UNL d   1      -1.947  -1.619  -0.487  0.00  0.00    -0.019 C 
ATOM      6  C   UNL d   1      -0.809  -1.990   0.125  0.00  0.00    -0.055 C 
ATOM      7  C   UNL d   1       1.329   1.080  -0.538  0.00  0.00     0.015 A 
ATOM      8  C   UNL d   1       1.663  -1.530   0.360  0.00  0.00     0.013 A 
ATOM      9  C   UNL d   1       2.611   0.631  -0.208  0.00  0.00    -0.061 A 
ATOM     10  C   UNL d   1      -0.699  -3.303   0.844  0.00  0.00     0.049 C 
ATOM     11  C   UNL d   1       2.767  -0.677   0.252  0.00  0.00     0.007 A 
ATOM     12  C   UNL d   1       3.778   1.571  -0.265  0.00  0.00     0.048 C 
ENDROOT
BRANCH   1  13
ATOM     13  C   UNL d   1      -1.799   1.472   0.606  0.00  0.00    -0.014 C 
ATOM     14  C   UNL d   1      -0.935   2.635   1.124  0.00  0.00     0.010 C 
ATOM     15  C   UNL d   1      -3.213   2.012   0.348  0.00  0.00     0.010 C 
ENDBRANCH   1  13
TORSDOF 1
