REMARK  3 active torsions:
REMARK  status: ('A' for Active; 'I' for Inactive)
REMARK    1  A    between atoms: O_1  and  C_6 
REMARK    2  A    between atoms: C_5  and  C_12 
REMARK    3  A    between atoms: C_7  and  C_14 
ROOT
ATOM      1  C   UNL d   1      -0.051  -0.196   0.070  0.00  0.00     0.008 C 
ATOM      2  C   UNL d   1       1.281  -0.823   0.501  0.00  0.00     0.025 C 
ATOM      3  C   UNL d   1      -0.119   1.285   0.509  0.00  0.00    -0.006 C 
ATOM      4  C   UNL d   1       2.497  -0.127  -0.121  0.00  0.00     0.058 C 
ATOM      5  C   UNL d   1      -1.087  -1.172   0.668  0.00  0.00     0.060 C 
ATOM      6  C   UNL d   1       1.050  -2.298   0.197  0.00  0.00     0.009 C 
ATOM      7  C   UNL d   1      -0.359  -2.534   0.752  0.00  0.00     0.013 C 
ATOM      8  C   UNL d   1       1.114   2.042  -0.046  0.00  0.00     0.008 C 
ATOM      9  C   UNL d   1       2.447   1.360   0.283  0.00  0.00     0.038 C 
ATOM     10  C   UNL d   1       2.610  -0.279  -1.641  0.00  0.00     0.046 C 
ENDROOT
BRANCH   3  11
ATOM     11  C   UNL d   1      -1.460   1.980   0.138  0.00  0.00    -0.018 C 
ATOM     12  C   UNL d   1      -1.559   3.389   0.731  0.00  0.00     0.010 C 
ATOM     13  C   UNL d   1      -1.740   2.044  -1.368  0.00  0.00     0.010 C 
ENDBRANCH   3  11
BRANCH   5  14
ATOM     14  C   UNL d   1      -2.330  -1.297  -0.203  0.00  0.00     0.127 C 
ATOM     15  O   UNL d   1      -2.261  -1.631  -1.388  0.00  0.00    -0.298 OA
ATOM     16  C   UNL d   1      -3.667  -1.061   0.449  0.00  0.00     0.091 C 
ENDBRANCH   5  14
BRANCH   4  17
ATOM     17  O   UNL d   1       3.688  -0.702   0.427  0.00  0.00    -0.390 OA
ATOM     18  H   UNL d   1       3.671  -0.577   1.391  0.00  0.00     0.210 HD
ENDBRANCH   4  17
TORSDOF 3
