REMARK  3 active torsions:
REMARK  status: ('A' for Active; 'I' for Inactive)
REMARK    1  A    between atoms: O_1  and  C_6 
REMARK    2  A    between atoms: C_2  and  C_3 
REMARK    3  A    between atoms: C_3  and  C_9 
ROOT
ATOM      1  C   UNL d   1       0.945  -0.302  -0.445  0.00  0.00    -0.055 A 
ATOM      2  C   UNL d   1       0.235  -1.436  -0.034  0.00  0.00     0.010 A 
ATOM      3  C   UNL d   1       0.262   0.913  -0.573  0.00  0.00     0.010 A 
ATOM      4  C   UNL d   1      -1.817  -0.142   0.083  0.00  0.00     0.068 A 
ATOM      5  C   UNL d   1      -1.137  -1.353   0.224  0.00  0.00     0.037 A 
ATOM      6  C   UNL d   1      -1.111   0.992  -0.315  0.00  0.00     0.037 A 
ENDROOT
BRANCH   1   7
ATOM      7  C   UNL d   1       2.429  -0.366  -0.716  0.00  0.00     0.064 C 
BRANCH   7   8
ATOM      8  C   UNL d   1       3.245  -0.057   0.507  0.00  0.00    -0.032 C 
ATOM      9  C   UNL d   1       4.069   0.993   0.622  0.00  0.00     0.007 C 
ENDBRANCH   7   8
ENDBRANCH   1   7
BRANCH   4  10
ATOM     10  O   UNL d   1      -3.155  -0.191   0.362  0.00  0.00    -0.356 OA
ATOM     11  C   UNL d   1      -3.876   1.029   0.221  0.00  0.00     0.210 C 
ENDBRANCH   4  10
TORSDOF 3
