REMARK  6 active torsions:
REMARK  status: ('A' for Active; 'I' for Inactive)
REMARK    1  A    between atoms: O_1  and  C_9 
REMARK    2  A    between atoms: C_3  and  C_4 
REMARK    3  A    between atoms: C_3  and  C_5 
REMARK    4  A    between atoms: C_4  and  C_6 
REMARK    5  A    between atoms: C_5  and  C_9 
REMARK    6  A    between atoms: C_6  and  C_8 
ROOT
ATOM      1  C   UNL d   1      -0.552  -1.286   0.427  0.00  0.00    -0.009 C 
ATOM      2  C   UNL d   1      -1.677  -2.118   1.059  0.00  0.00     0.010 C 
ENDROOT
BRANCH   1   3
ATOM      3  C   UNL d   1       0.625  -2.223   0.072  0.00  0.00     0.008 C 
BRANCH   3   4
ATOM      4  C   UNL d   1       1.840  -1.555  -0.590  0.00  0.00     0.027 C 
BRANCH   4   5
ATOM      5  C   UNL d   1       2.487  -0.517   0.284  0.00  0.00    -0.025 C 
ATOM      6  C   UNL d   1       2.736   0.776   0.003  0.00  0.00    -0.091 C 
ATOM      7  C   UNL d   1       3.405   1.664   1.022  0.00  0.00     0.042 C 
ATOM      8  C   UNL d   1       2.411   1.473  -1.290  0.00  0.00     0.042 C 
ENDBRANCH   4   5
ENDBRANCH   3   4
ENDBRANCH   1   3
BRANCH   1   9
ATOM      9  C   UNL d   1      -1.069  -0.514  -0.797  0.00  0.00     0.115 C 
BRANCH   9  10
ATOM     10  C   UNL d   1      -2.213   0.412  -0.466  0.00  0.00     0.258 C 
ATOM     11  O   UNL d   1      -3.340   0.307  -0.931  0.00  0.00    -0.265 OA
BRANCH  10  12
ATOM     12  O   UNL d   1      -1.806   1.377   0.405  0.00  0.00    -0.326 OA
ATOM     13  C   UNL d   1      -2.837   2.284   0.795  0.00  0.00     0.213 C 
ENDBRANCH  10  12
ENDBRANCH   9  10
ENDBRANCH   1   9
TORSDOF 6
