REMARK  10 active torsions:
REMARK  status: ('A' for Active; 'I' for Inactive)
REMARK    1  A    between atoms: O_2  and  C_11 
REMARK    2  A    between atoms: O_3  and  C_12 
REMARK    3  A    between atoms: O_4  and  C_14 
REMARK    4  A    between atoms: O_6  and  C_17 
REMARK    5  A    between atoms: O_7  and  C_19 
REMARK    6  A    between atoms: O_8  and  C_22 
REMARK    7  A    between atoms: O_10  and  C_31 
REMARK    8  A    between atoms: C_13  and  C_16 
REMARK    9  A    between atoms: C_15  and  C_17 
REMARK   10  A    between atoms: C_24  and  C_26 
ROOT
ATOM      1  O   UNL d   1      -0.141   0.767   0.046  0.00  0.00    -0.308 OA
ATOM      2  O   UNL d   1      -2.252   4.205   0.355  0.00  0.00    -0.287 OA
ATOM      3  C   UNL d   1      -2.118  -0.552  -0.118  0.00  0.00     0.041 A 
ATOM      4  C   UNL d   1      -1.515   0.715   0.018  0.00  0.00     0.104 A 
ATOM      5  C   UNL d   1      -3.521  -0.616  -0.114  0.00  0.00     0.080 A 
ATOM      6  C   UNL d   1      -2.294   1.865   0.127  0.00  0.00     0.082 A 
ATOM      7  C   UNL d   1      -4.304   0.534   0.001  0.00  0.00     0.074 A 
ATOM      8  C   UNL d   1      -3.687   1.774   0.117  0.00  0.00     0.085 A 
ATOM      9  C   UNL d   1      -1.613   3.158   0.255  0.00  0.00     0.190 A 
ATOM     10  C   UNL d   1       0.499   1.990   0.125  0.00  0.00     0.090 A 
ATOM     11  C   UNL d   1      -0.148   3.157   0.244  0.00  0.00     0.094 A 
ENDROOT
BRANCH   3  12
ATOM     12  C   UNL d   1      -1.283  -1.810  -0.264  0.00  0.00     0.192 C 
ATOM     13  O   UNL d   1      -0.508  -1.936   0.943  0.00  0.00    -0.368 OA
ATOM     14  C   UNL d   1       0.247  -3.155   0.981  0.00  0.00     0.177 C 
ATOM     15  C   UNL d   1       1.267  -3.186  -0.164  0.00  0.00     0.180 C 
ATOM     16  C   UNL d   1       0.561  -2.999  -1.512  0.00  0.00     0.181 C 
ATOM     17  C   UNL d   1      -0.377  -1.790  -1.517  0.00  0.00     0.183 C 
BRANCH  14  18
ATOM     18  C   UNL d   1       0.929  -3.227   2.352  0.00  0.00     0.198 C 
BRANCH  18  19
ATOM     19  O   UNL d   1      -0.064  -3.200   3.381  0.00  0.00    -0.398 OA
ATOM     20  H   UNL d   1      -0.615  -2.415   3.193  0.00  0.00     0.209 HD
ENDBRANCH  18  19
ENDBRANCH  14  18
BRANCH  15  21
ATOM     21  O   UNL d   1       1.997  -4.418  -0.197  0.00  0.00    -0.390 OA
ATOM     22  H   UNL d   1       1.360  -5.153  -0.258  0.00  0.00     0.210 HD
ENDBRANCH  15  21
BRANCH  16  23
ATOM     23  O   UNL d   1       1.530  -2.831  -2.562  0.00  0.00    -0.390 OA
ATOM     24  H   UNL d   1       2.219  -3.508  -2.411  0.00  0.00     0.210 HD
ENDBRANCH  16  23
BRANCH  17  25
ATOM     25  O   UNL d   1      -1.157  -1.824  -2.721  0.00  0.00    -0.390 OA
ATOM     26  H   UNL d   1      -0.505  -1.857  -3.448  0.00  0.00     0.210 HD
ENDBRANCH  17  25
ENDBRANCH   3  12
BRANCH   5  27
ATOM     27  O   UNL d   1      -4.134  -1.835  -0.216  0.00  0.00    -0.360 OA
ATOM     28  H   UNL d   1      -5.098  -1.708  -0.221  0.00  0.00     0.217 HD
ENDBRANCH   5  27
BRANCH  10  29
ATOM     29  C   UNL d   1       1.977   1.900   0.089  0.00  0.00    -0.002 A 
ATOM     30  C   UNL d   1       2.764   2.935  -0.444  0.00  0.00     0.017 A 
ATOM     31  C   UNL d   1       4.158   2.845  -0.467  0.00  0.00     0.037 A 
ATOM     32  C   UNL d   1       4.777   1.703   0.026  0.00  0.00     0.065 A 
ATOM     33  C   UNL d   1       4.026   0.653   0.534  0.00  0.00     0.037 A 
ATOM     34  C   UNL d   1       2.632   0.752   0.565  0.00  0.00     0.017 A 
BRANCH  32  35
ATOM     35  O   UNL d   1       6.134   1.577   0.024  0.00  0.00    -0.361 OA
ATOM     36  H   UNL d   1       6.520   2.387  -0.348  0.00  0.00     0.217 HD
ENDBRANCH  32  35
ENDBRANCH  10  29
BRANCH   8  37
ATOM     37  O   UNL d   1      -4.508   2.864   0.223  0.00  0.00    -0.360 OA
ATOM     38  H   UNL d   1      -3.942   3.666   0.298  0.00  0.00     0.217 HD
ENDBRANCH   8  37
TORSDOF 10
