REMARK  1 active torsions:
REMARK  status: ('A' for Active; 'I' for Inactive)
REMARK    1  A    between atoms: C_1  and  C_2 
ROOT
ATOM      1  C   UNL d   1       1.350  -0.142   0.001  0.00  0.00    -0.044 A 
ATOM      2  C   UNL d   1      -0.072  -0.239   0.002  0.00  0.00    -0.018 A 
ATOM      3  C   UNL d   1      -0.853   0.952   0.002  0.00  0.00    -0.019 A 
ATOM      4  C   UNL d   1      -0.210   2.217   0.002  0.00  0.00    -0.051 A 
ATOM      5  C   UNL d   1       1.950   1.131   0.002  0.00  0.00     0.009 A 
ATOM      6  C   UNL d   1      -0.764  -1.476  -0.003  0.00  0.00     0.019 A 
ATOM      7  C   UNL d   1       1.186   2.289   0.001  0.00  0.00     0.008 A 
ATOM      8  C   UNL d   1      -2.261   0.836   0.004  0.00  0.00     0.013 A 
ATOM      9  C   UNL d   1      -2.160  -1.569  -0.011  0.00  0.00    -0.061 A 
ATOM     10  C   UNL d   1      -2.907  -0.402  -0.001  0.00  0.00     0.007 A 
ATOM     11  C   UNL d   1      -0.985   3.509   0.001  0.00  0.00     0.049 C 
ATOM     12  C   UNL d   1      -2.807  -2.920  -0.001  0.00  0.00     0.048 C 
ENDROOT
BRANCH   1  13
ATOM     13  C   UNL d   1       2.265  -1.365   0.000  0.00  0.00     0.011 C 
ATOM     14  C   UNL d   1       3.121  -1.422   1.268  0.00  0.00     0.015 C 
ATOM     15  C   UNL d   1       3.121  -1.422  -1.267  0.00  0.00     0.015 C 
ENDBRANCH   1  13
TORSDOF 1
