REMARK  4 active torsions:
REMARK  status: ('A' for Active; 'I' for Inactive)
REMARK    1  A    between atoms: C_1  and  C_2 
REMARK    2  A    between atoms: C_1  and  C_3 
REMARK    3  A    between atoms: C_2  and  C_4 
REMARK    4  A    between atoms: C_4  and  C_8 
ROOT
ATOM      1  C   UNL d   1       0.159   1.984   0.049  0.00  0.00     0.015 C 
ATOM      2  C   UNL d   1       0.520   3.047  -0.997  0.00  0.00     0.015 C 
ENDROOT
BRANCH   1   3
ATOM      3  C   UNL d   1      -1.286   1.492  -0.173  0.00  0.00     0.012 C 
BRANCH   3   4
ATOM      4  C   UNL d   1      -1.777   0.549   0.930  0.00  0.00     0.028 C 
BRANCH   4   5
ATOM      5  C   UNL d   1      -3.213   0.154   0.707  0.00  0.00    -0.025 C 
ATOM      6  C   UNL d   1      -3.657  -0.918   0.022  0.00  0.00    -0.091 C 
ATOM      7  C   UNL d   1      -5.130  -1.203  -0.100  0.00  0.00     0.042 C 
ATOM      8  C   UNL d   1      -2.771  -1.904  -0.689  0.00  0.00     0.042 C 
ENDBRANCH   4   5
ENDBRANCH   3   4
ENDBRANCH   1   3
BRANCH   1   9
ATOM      9  C   UNL d   1       1.187   0.866   0.033  0.00  0.00    -0.054 A 
ATOM     10  C   UNL d   1       2.002   0.650   1.154  0.00  0.00     0.008 A 
ATOM     11  C   UNL d   1       2.965  -0.363   1.153  0.00  0.00     0.007 A 
ATOM     12  C   UNL d   1       3.144  -1.172   0.027  0.00  0.00    -0.062 A 
ATOM     13  C   UNL d   1       2.323  -0.973  -1.087  0.00  0.00     0.007 A 
ATOM     14  C   UNL d   1       4.161  -2.274   0.034  0.00  0.00     0.048 C 
ATOM     15  C   UNL d   1       1.358   0.038  -1.086  0.00  0.00     0.008 A 
ENDBRANCH   1   9
TORSDOF 4
