REMARK  16 active torsions:
REMARK  status: ('A' for Active; 'I' for Inactive)
REMARK    1  A    between atoms: O_2  and  C_22 
REMARK    2  A    between atoms: O_2  and  C_26 
REMARK    3  A    between atoms: O_4  and  C_18 
REMARK    4  A    between atoms: O_5  and  C_19 
REMARK    5  A    between atoms: O_6  and  C_25 
REMARK    6  A    between atoms: O_6  and  C_29 
REMARK    7  A    between atoms: O_7  and  C_20 
REMARK    8  A    between atoms: O_8  and  C_21 
REMARK    9  A    between atoms: O_9  and  C_23 
REMARK   10  A    between atoms: O_10  and  C_24 
REMARK   11  A    between atoms: O_13  and  C_35 
REMARK   12  A    between atoms: O_14  and  C_40 
REMARK   13  A    between atoms: O_15  and  C_41 
REMARK   14  A    between atoms: O_16  and  C_43 
REMARK   15  A    between atoms: C_17  and  C_26 
REMARK   16  A    between atoms: C_30  and  C_33 
ROOT
ATOM      1  O   UNL d   1       0.959  -0.093   1.749  0.00  0.00    -0.348 OA
ATOM      2  C   UNL d   1       1.246   0.917   2.711  0.00  0.00     0.180 C 
ATOM      3  C   UNL d   1       2.751   1.197   2.730  0.00  0.00     0.180 C 
ATOM      4  C   UNL d   1       3.527  -0.101   2.999  0.00  0.00     0.183 C 
ATOM      5  C   UNL d   1       3.093  -1.250   2.077  0.00  0.00     0.205 C 
ATOM      6  C   UNL d   1       1.552  -1.361   2.042  0.00  0.00     0.298 C 
ENDROOT
BRANCH   6   7
ATOM      7  O   UNL d   1       1.203  -2.343   1.047  0.00  0.00    -0.311 OA
BRANCH   7   8
ATOM      8  C   UNL d   1      -0.075  -2.145   0.543  0.00  0.00     0.157 A 
ATOM      9  C   UNL d   1      -0.292  -1.943  -0.767  0.00  0.00     0.124 A 
ATOM     10  O   UNL d   1      -1.523  -1.688  -1.335  0.00  0.00    -0.306 OA
ATOM     11  C   UNL d   1      -2.614  -1.591  -0.509  0.00  0.00     0.096 A 
ATOM     12  C   UNL d   1      -2.555  -1.781   0.873  0.00  0.00     0.084 A 
ATOM     13  C   UNL d   1      -3.828  -1.284  -1.129  0.00  0.00     0.075 A 
ATOM     14  C   UNL d   1      -1.243  -2.110   1.473  0.00  0.00     0.223 A 
ATOM     15  C   UNL d   1      -3.731  -1.660   1.631  0.00  0.00     0.085 A 
ATOM     16  O   UNL d   1      -1.095  -2.341   2.670  0.00  0.00    -0.284 OA
ATOM     17  C   UNL d   1      -4.949  -1.362   1.012  0.00  0.00     0.074 A 
ATOM     18  C   UNL d   1      -4.982  -1.174  -0.365  0.00  0.00     0.071 A 
BRANCH   9  19
ATOM     19  C   UNL d   1       0.813  -1.946  -1.736  0.00  0.00     0.004 A 
ATOM     20  C   UNL d   1       1.524  -0.770  -2.014  0.00  0.00     0.053 A 
ATOM     21  C   UNL d   1       2.582  -0.797  -2.917  0.00  0.00     0.099 A 
ATOM     22  C   UNL d   1       2.937  -1.983  -3.556  0.00  0.00     0.098 A 
ATOM     23  C   UNL d   1       2.256  -3.159  -3.274  0.00  0.00     0.040 A 
ATOM     24  C   UNL d   1       1.195  -3.139  -2.368  0.00  0.00     0.017 A 
BRANCH  21  25
ATOM     25  O   UNL d   1       3.277   0.357  -3.143  0.00  0.00    -0.358 OA
ATOM     26  H   UNL d   1       4.197   0.104  -3.333  0.00  0.00     0.217 HD
ENDBRANCH  21  25
BRANCH  22  27
ATOM     27  O   UNL d   1       3.939  -2.016  -4.479  0.00  0.00    -0.358 OA
ATOM     28  H   UNL d   1       3.895  -1.173  -4.965  0.00  0.00     0.217 HD
ENDBRANCH  22  27
ENDBRANCH   9  19
BRANCH  15  29
ATOM     29  O   UNL d   1      -3.712  -1.819   2.988  0.00  0.00    -0.360 OA
ATOM     30  H   UNL d   1      -4.611  -1.803   3.352  0.00  0.00     0.217 HD
ENDBRANCH  15  29
BRANCH  18  31
ATOM     31  O   UNL d   1      -6.142  -0.865  -1.012  0.00  0.00    -0.361 OA
ATOM     32  H   UNL d   1      -6.879  -0.880  -0.379  0.00  0.00     0.217 HD
ENDBRANCH  18  31
ENDBRANCH   7   8
ENDBRANCH   6   7
BRANCH   5  33
ATOM     33  O   UNL d   1       3.689  -2.485   2.523  0.00  0.00    -0.388 OA
ATOM     34  H   UNL d   1       3.359  -2.690   3.412  0.00  0.00     0.210 HD
ENDBRANCH   5  33
BRANCH   2  35
ATOM     35  C   UNL d   1       0.428   2.160   2.333  0.00  0.00     0.205 C 
BRANCH  35  36
ATOM     36  O   UNL d   1       0.758   2.567   0.999  0.00  0.00    -0.356 OA
BRANCH  36  37
ATOM     37  C   UNL d   1       0.056   3.734   0.592  0.00  0.00     0.291 C 
ATOM     38  O   UNL d   1      -1.368   3.565   0.611  0.00  0.00    -0.351 OA
ATOM     39  C   UNL d   1      -1.822   2.532  -0.274  0.00  0.00     0.152 C 
ATOM     40  C   UNL d   1      -1.472   2.848  -1.737  0.00  0.00     0.178 C 
ATOM     41  C   UNL d   1      -3.329   2.417  -0.069  0.00  0.00     0.042 C 
ATOM     42  C   UNL d   1       0.032   3.143  -1.868  0.00  0.00     0.183 C 
ATOM     43  C   UNL d   1       0.491   4.167  -0.821  0.00  0.00     0.204 C 
BRANCH  40  44
ATOM     44  O   UNL d   1      -1.827   1.746  -2.578  0.00  0.00    -0.390 OA
ATOM     45  H   UNL d   1      -2.784   1.786  -2.740  0.00  0.00     0.210 HD
ENDBRANCH  40  44
BRANCH  42  46
ATOM     46  O   UNL d   1       0.312   3.654  -3.184  0.00  0.00    -0.390 OA
ATOM     47  H   UNL d   1       0.057   4.596  -3.168  0.00  0.00     0.210 HD
ENDBRANCH  42  46
BRANCH  43  48
ATOM     48  O   UNL d   1      -0.087   5.448  -1.161  0.00  0.00    -0.388 OA
ATOM     49  H   UNL d   1      -0.968   5.482  -0.741  0.00  0.00     0.210 HD
ENDBRANCH  43  48
ENDBRANCH  36  37
ENDBRANCH  35  36
ENDBRANCH   2  35
BRANCH   4  50
ATOM     50  O   UNL d   1       4.933   0.155   2.857  0.00  0.00    -0.390 OA
ATOM     51  H   UNL d   1       5.105   1.028   3.256  0.00  0.00     0.210 HD
ENDBRANCH   4  50
BRANCH   3  52
ATOM     52  O   UNL d   1       3.096   2.158   3.740  0.00  0.00    -0.390 OA
ATOM     53  H   UNL d   1       2.799   1.823   4.605  0.00  0.00     0.210 HD
ENDBRANCH   3  52
TORSDOF 16
