REMARK  5 active torsions:
REMARK  status: ('A' for Active; 'I' for Inactive)
REMARK    1  A    between atoms: O_1  and  C_3 
REMARK    2  A    between atoms: C_2  and  C_3 
REMARK    3  A    between atoms: C_3  and  C_6 
REMARK    4  A    between atoms: C_6  and  C_11 
REMARK    5  A    between atoms: C_11  and  C_13 
ROOT
ATOM      1  C   UNL d   1       0.043  -1.385   0.277  0.00  0.00     0.058 C 
ATOM      2  C   UNL d   1      -0.229  -2.428  -0.818  0.00  0.00     0.046 C 
ENDROOT
BRANCH   1   3
ATOM      3  O   UNL d   1       0.422  -2.138   1.439  0.00  0.00    -0.390 OA
ATOM      4  H   UNL d   1       0.493  -1.524   2.193  0.00  0.00     0.210 HD
ENDBRANCH   1   3
BRANCH   1   5
ATOM      5  C   UNL d   1       1.208  -0.430  -0.130  0.00  0.00     0.023 C 
ATOM      6  C   UNL d   1       1.468   0.677   0.911  0.00  0.00     0.012 C 
ATOM      7  C   UNL d   1       2.520   1.674   0.426  0.00  0.00     0.034 C 
ATOM      8  C   UNL d   1       3.717   1.020  -0.206  0.00  0.00    -0.087 C 
ATOM      9  C   UNL d   1       3.714  -0.275  -0.564  0.00  0.00    -0.024 C 
ATOM     10  C   UNL d   1       4.912   1.904  -0.406  0.00  0.00     0.043 C 
ATOM     11  C   UNL d   1       2.527  -1.184  -0.412  0.00  0.00     0.035 C 
ENDBRANCH   1   5
BRANCH   1  12
ATOM     12  C   UNL d   1      -1.260  -0.631   0.631  0.00  0.00     0.041 C 
BRANCH  12  13
ATOM     13  C   UNL d   1      -1.770   0.309  -0.464  0.00  0.00     0.030 C 
BRANCH  13  14
ATOM     14  C   UNL d   1      -2.969   1.079   0.010  0.00  0.00    -0.025 C 
ATOM     15  C   UNL d   1      -4.259   0.732  -0.171  0.00  0.00    -0.091 C 
ATOM     16  C   UNL d   1      -5.369   1.610   0.331  0.00  0.00     0.042 C 
ATOM     17  C   UNL d   1      -4.704  -0.534  -0.848  0.00  0.00     0.042 C 
ENDBRANCH  13  14
ENDBRANCH  12  13
ENDBRANCH   1  12
TORSDOF 5
