REMARK  0 active torsions:
REMARK  status: ('A' for Active; 'I' for Inactive)
ROOT
ATOM      1  C   UNL d   1      -1.139  -0.365   0.251  0.00  0.00    -0.036 C 
ATOM      2  C   UNL d   1      -0.868   1.130  -0.223  0.00  0.00    -0.002 C 
ATOM      3  C   UNL d   1       0.103  -0.682  -0.700  0.00  0.00     0.022 C 
ATOM      4  C   UNL d   1      -0.414   0.507  -1.585  0.00  0.00     0.015 C 
ATOM      5  C   UNL d   1       0.320   1.827   0.473  0.00  0.00     0.033 C 
ATOM      6  C   UNL d   1       1.436  -0.330  -0.087  0.00  0.00    -0.083 C 
ATOM      7  C   UNL d   1      -2.481  -0.964  -0.212  0.00  0.00     0.016 C 
ATOM      8  C   UNL d   1      -0.995  -0.663   1.750  0.00  0.00     0.016 C 
ATOM      9  C   UNL d   1       1.518   0.898   0.465  0.00  0.00    -0.024 C 
ATOM     10  C   UNL d   1       2.535  -1.337  -0.124  0.00  0.00     0.043 C 
ENDROOT
TORSDOF 0
