REMARK  2 active torsions:
REMARK  status: ('A' for Active; 'I' for Inactive)
REMARK    1  A    between atoms: O_1  and  C_3 
REMARK    2  A    between atoms: C_2  and  C_3 
ROOT
ATOM      1  C   UNL d   1      -0.490  -0.024   0.358  0.00  0.00     0.023 C 
ATOM      2  C   UNL d   1       0.224  -1.239  -0.264  0.00  0.00     0.012 C 
ATOM      3  C   UNL d   1       0.213   1.273  -0.104  0.00  0.00     0.035 C 
ATOM      4  C   UNL d   1       1.703  -1.288   0.119  0.00  0.00     0.034 C 
ATOM      5  C   UNL d   1       2.394   0.046   0.039  0.00  0.00    -0.087 C 
ATOM      6  C   UNL d   1       1.712   1.195  -0.078  0.00  0.00    -0.024 C 
ATOM      7  C   UNL d   1       3.892   0.012   0.093  0.00  0.00     0.043 C 
ENDROOT
BRANCH   1   8
ATOM      8  C   UNL d   1      -2.013  -0.002   0.041  0.00  0.00     0.054 C 
ATOM      9  C   UNL d   1      -2.709   1.181   0.727  0.00  0.00     0.045 C 
ATOM     10  C   UNL d   1      -2.698  -1.310   0.460  0.00  0.00     0.045 C 
BRANCH   8  11
ATOM     11  O   UNL d   1      -2.188   0.144  -1.371  0.00  0.00    -0.390 OA
ATOM     12  H   UNL d   1      -3.141   0.149  -1.560  0.00  0.00     0.210 HD
ENDBRANCH   8  11
ENDBRANCH   1   8
TORSDOF 2
