REMARK  4 active torsions:
REMARK  status: ('A' for Active; 'I' for Inactive)
REMARK    1  A    between atoms: O_1  and  C_13 
REMARK    2  A    between atoms: O_4  and  C_15 
REMARK    3  A    between atoms: O_5  and  C_21 
REMARK    4  A    between atoms: C_16  and  C_21 
ROOT
ATOM      1  O   UNL d   1      -1.344  -2.418   0.001  0.00  0.00    -0.286 OA
ATOM      2  O   UNL d   1      -0.206   2.785  -0.002  0.00  0.00    -0.287 OA
ATOM      3  C   UNL d   1       0.371  -0.772  -0.001  0.00  0.00     0.062 A 
ATOM      4  C   UNL d   1       0.649   0.598  -0.001  0.00  0.00     0.033 A 
ATOM      5  C   UNL d   1      -2.136  -0.249  -0.001  0.00  0.00     0.062 A 
ATOM      6  C   UNL d   1      -1.855   1.114   0.001  0.00  0.00     0.032 A 
ATOM      7  C   UNL d   1      -1.038  -1.232  -0.000  0.00  0.00     0.199 A 
ATOM      8  C   UNL d   1      -0.453   1.585  -0.001  0.00  0.00     0.194 A 
ATOM      9  C   UNL d   1       1.439  -1.683  -0.001  0.00  0.00     0.082 A 
ATOM     10  C   UNL d   1       1.980   1.054  -0.001  0.00  0.00     0.035 A 
ATOM     11  C   UNL d   1      -3.471  -0.679  -0.001  0.00  0.00     0.080 A 
ATOM     12  C   UNL d   1       3.034   0.133  -0.001  0.00  0.00     0.041 A 
ATOM     13  C   UNL d   1      -2.904   2.044  -0.000  0.00  0.00     0.017 A 
ATOM     14  C   UNL d   1       2.758  -1.236  -0.001  0.00  0.00     0.055 A 
ATOM     15  C   UNL d   1      -4.514   0.242  -0.000  0.00  0.00     0.037 A 
ATOM     16  C   UNL d   1      -4.230   1.607   0.000  0.00  0.00     0.004 A 
ENDROOT
BRANCH  12  17
ATOM     17  C   UNL d   1       4.436   0.622  -0.001  0.00  0.00     0.176 C 
ATOM     18  O   UNL d   1       4.785   1.785  -0.001  0.00  0.00    -0.646 OA
BRANCH  17  19
ATOM     19  O   UNL d   1       5.323  -0.389   0.001  0.00  0.00    -0.773 OA
ATOM     20  H   UNL d   1       6.201   0.046   0.001  0.00  0.00     0.167 HD
ENDBRANCH  17  19
ENDBRANCH  12  17
BRANCH   9  21
ATOM     21  O   UNL d   1       1.219  -3.031  -0.001  0.00  0.00    -0.360 OA
ATOM     22  H   UNL d   1       2.057  -3.521  -0.001  0.00  0.00     0.217 HD
ENDBRANCH   9  21
BRANCH  11  23
ATOM     23  O   UNL d   1      -3.835  -2.000  -0.000  0.00  0.00    -0.360 OA
ATOM     24  H   UNL d   1      -3.011  -2.543   0.000  0.00  0.00     0.217 HD
ENDBRANCH  11  23
TORSDOF 4
