REMARK  16 active torsions:
REMARK  status: ('A' for Active; 'I' for Inactive)
REMARK    1  A    between atoms: O_1  and  C_14 
REMARK    2  A    between atoms: O_2  and  C_15 
REMARK    3  A    between atoms: O_3  and  C_16 
REMARK    4  A    between atoms: O_4  and  C_17 
REMARK    5  A    between atoms: O_5  and  C_24 
REMARK    6  A    between atoms: O_6  and  C_25 
REMARK    7  A    between atoms: C_9  and  C_10 
REMARK    8  A    between atoms: C_9  and  C_12 
REMARK    9  A    between atoms: C_9  and  C_13 
REMARK   10  A    between atoms: C_10  and  C_11 
REMARK   11  A    between atoms: C_20  and  C_26 
REMARK   12  A    between atoms: C_21  and  C_27 
REMARK   13  A    between atoms: C_22  and  C_28 
REMARK   14  A    between atoms: C_23  and  C_29 
REMARK   15  A    between atoms: C_26  and  C_30 
REMARK   16  A    between atoms: C_27  and  C_31 
ROOT
ATOM      1  C   UNL d   1      -0.498  -1.255   1.476  0.00  0.00     0.063 C 
ENDROOT
BRANCH   1   2
ATOM      2  C   UNL d   1      -1.010  -2.626   1.998  0.00  0.00     0.018 C 
BRANCH   2   3
ATOM      3  C   UNL d   1      -2.376  -2.557   2.724  0.00  0.00    -0.022 C 
ATOM      4  C   UNL d   1      -2.306  -1.718   3.998  0.00  0.00     0.009 C 
ATOM      5  C   UNL d   1      -2.890  -3.963   3.019  0.00  0.00     0.009 C 
ENDBRANCH   2   3
ENDBRANCH   1   2
BRANCH   1   6
ATOM      6  C   UNL d   1      -1.490  -0.381   0.703  0.00  0.00     0.019 A 
ATOM      7  C   UNL d   1      -1.494   1.024   0.870  0.00  0.00     0.084 A 
ATOM      8  C   UNL d   1      -2.422   1.854   0.207  0.00  0.00     0.013 A 
ATOM      9  C   UNL d   1      -3.346   1.266  -0.675  0.00  0.00     0.094 A 
ATOM     10  C   UNL d   1      -3.347  -0.114  -0.871  0.00  0.00     0.077 A 
ATOM     11  C   UNL d   1      -2.449  -0.925  -0.172  0.00  0.00     0.092 A 
BRANCH   7  12
ATOM     12  O   UNL d   1      -0.612   1.646   1.720  0.00  0.00    -0.359 OA
ATOM     13  H   UNL d   1       0.242   1.175   1.732  0.00  0.00     0.217 HD
ENDBRANCH   7  12
BRANCH   8  14
ATOM     14  C   UNL d   1      -2.411   3.353   0.421  0.00  0.00     0.072 C 
BRANCH  14  15
ATOM     15  C   UNL d   1      -1.495   4.072  -0.531  0.00  0.00    -0.020 C 
ATOM     16  C   UNL d   1      -0.430   4.828  -0.208  0.00  0.00    -0.091 C 
ATOM     17  C   UNL d   1       0.412   5.481  -1.272  0.00  0.00     0.042 C 
ATOM     18  C   UNL d   1       0.028   5.082   1.201  0.00  0.00     0.042 C 
ENDBRANCH  14  15
ENDBRANCH   8  14
BRANCH   9  19
ATOM     19  O   UNL d   1      -4.202   2.063  -1.388  0.00  0.00    -0.354 OA
ATOM     20  C   UNL d   1      -5.454   2.202  -0.711  0.00  0.00     0.210 C 
ENDBRANCH   9  19
BRANCH  10  21
ATOM     21  C   UNL d   1      -4.274  -0.764  -1.812  0.00  0.00     0.161 C 
ATOM     22  O   UNL d   1      -4.939  -1.724  -1.408  0.00  0.00    -0.293 OA
ATOM     23  C   UNL d   1      -4.242  -0.359  -3.251  0.00  0.00     0.097 C 
ENDBRANCH  10  21
BRANCH  11  24
ATOM     24  O   UNL d   1      -2.505  -2.285  -0.345  0.00  0.00    -0.359 OA
ATOM     25  H   UNL d   1      -3.323  -2.548  -0.808  0.00  0.00     0.217 HD
ENDBRANCH  11  24
ENDBRANCH   1   6
BRANCH   1  26
ATOM     26  C   UNL d   1       0.857  -1.374   0.764  0.00  0.00     0.019 A 
ATOM     27  C   UNL d   1       2.014  -0.777   1.305  0.00  0.00     0.084 A 
ATOM     28  C   UNL d   1       3.261  -0.813   0.650  0.00  0.00     0.013 A 
ATOM     29  C   UNL d   1       3.352  -1.446  -0.592  0.00  0.00     0.091 A 
ATOM     30  C   UNL d   1       2.222  -2.043  -1.159  0.00  0.00     0.077 A 
ATOM     31  C   UNL d   1       0.999  -2.008  -0.482  0.00  0.00     0.092 A 
BRANCH  27  32
ATOM     32  O   UNL d   1       1.935  -0.097   2.493  0.00  0.00    -0.359 OA
ATOM     33  H   UNL d   1       1.608  -0.722   3.164  0.00  0.00     0.217 HD
ENDBRANCH  27  32
BRANCH  28  34
ATOM     34  C   UNL d   1       4.496  -0.189   1.282  0.00  0.00     0.072 C 
BRANCH  34  35
ATOM     35  C   UNL d   1       4.707   1.250   0.860  0.00  0.00    -0.020 C 
ATOM     36  C   UNL d   1       5.754   1.742   0.171  0.00  0.00    -0.091 C 
ATOM     37  C   UNL d   1       5.836   3.207  -0.183  0.00  0.00     0.042 C 
ATOM     38  C   UNL d   1       6.912   0.921  -0.317  0.00  0.00     0.042 C 
ENDBRANCH  34  35
ENDBRANCH  28  34
BRANCH  29  39
ATOM     39  O   UNL d   1       4.572  -1.508  -1.222  0.00  0.00    -0.359 OA
ATOM     40  H   UNL d   1       4.433  -1.739  -2.162  0.00  0.00     0.217 HD
ENDBRANCH  29  39
BRANCH  30  41
ATOM     41  C   UNL d   1       2.329  -2.717  -2.468  0.00  0.00     0.161 C 
ATOM     42  O   UNL d   1       2.812  -2.095  -3.412  0.00  0.00    -0.293 OA
ATOM     43  C   UNL d   1       1.883  -4.147  -2.581  0.00  0.00     0.097 C 
ENDBRANCH  30  41
BRANCH  31  44
ATOM     44  O   UNL d   1      -0.078  -2.625  -1.046  0.00  0.00    -0.359 OA
ATOM     45  H   UNL d   1      -0.142  -2.387  -1.987  0.00  0.00     0.217 HD
ENDBRANCH  31  44
ENDBRANCH   1  26
TORSDOF 16
