REMARK  13 active torsions:
REMARK  status: ('A' for Active; 'I' for Inactive)
REMARK    1  A    between atoms: O_3  and  C_14 
REMARK    2  A    between atoms: O_4  and  C_20 
REMARK    3  A    between atoms: O_5  and  C_24 
REMARK    4  A    between atoms: O_6  and  C_26 
REMARK    5  A    between atoms: O_7  and  C_27 
REMARK    6  A    between atoms: O_8  and  C_32 
REMARK    7  A    between atoms: O_9  and  C_39 
REMARK    8  A    between atoms: O_10  and  C_40 
REMARK    9  A    between atoms: O_11  and  C_42 
REMARK   10  A    between atoms: O_12  and  C_41 
REMARK   11  A    between atoms: C_13  and  C_15 
REMARK   12  A    between atoms: C_16  and  C_25 
REMARK   13  A    between atoms: C_21  and  C_29 
ROOT
ATOM      1  O   UNL d   1      -1.502   0.720   0.654  0.00  0.00    -0.337 OA
ATOM      2  C   UNL d   1       0.737   1.466   0.811  0.00  0.00     0.020 A 
ATOM      3  C   UNL d   1      -0.578   1.477   1.329  0.00  0.00     0.088 A 
ATOM      4  C   UNL d   1      -0.915   2.250   2.453  0.00  0.00     0.012 A 
ATOM      5  C   UNL d   1      -3.323   1.724   1.976  0.00  0.00     0.156 C 
ATOM      6  C   UNL d   1      -2.723   0.448   1.360  0.00  0.00     0.191 C 
ATOM      7  C   UNL d   1      -2.324   2.279   2.987  0.00  0.00     0.079 C 
ATOM      8  C   UNL d   1       1.712   2.205   1.500  0.00  0.00     0.078 A 
ATOM      9  C   UNL d   1       0.090   2.982   3.091  0.00  0.00     0.077 A 
ATOM     10  C   UNL d   1       1.398   2.966   2.625  0.00  0.00     0.074 A 
ENDROOT
BRANCH   2  11
ATOM     11  C   UNL d   1       1.033   0.647  -0.455  0.00  0.00     0.094 C 
ATOM     12  C   UNL d   1       1.394  -0.812  -0.107  0.00  0.00     0.165 C 
ATOM     13  C   UNL d   1       2.912  -0.935   0.105  0.00  0.00     0.191 C 
ATOM     14  O   UNL d   1       3.627  -0.574  -1.089  0.00  0.00    -0.338 OA
ATOM     15  C   UNL d   1       3.277   0.637  -1.628  0.00  0.00     0.082 A 
ATOM     16  C   UNL d   1       2.042   1.270  -1.404  0.00  0.00     0.020 A 
ATOM     17  C   UNL d   1       4.232   1.207  -2.472  0.00  0.00     0.074 A 
ATOM     18  C   UNL d   1       1.797   2.486  -2.066  0.00  0.00     0.078 A 
ATOM     19  C   UNL d   1       2.757   3.067  -2.894  0.00  0.00     0.073 A 
ATOM     20  C   UNL d   1       3.972   2.423  -3.086  0.00  0.00     0.071 A 
BRANCH  12  21
ATOM     21  O   UNL d   1       0.944  -1.663  -1.186  0.00  0.00    -0.392 OA
ATOM     22  H   UNL d   1       1.553  -1.514  -1.933  0.00  0.00     0.210 HD
ENDBRANCH  12  21
BRANCH  13  23
ATOM     23  C   UNL d   1       3.308  -2.347   0.520  0.00  0.00    -0.026 A 
ATOM     24  C   UNL d   1       3.318  -2.699   1.881  0.00  0.00     0.012 A 
ATOM     25  C   UNL d   1       3.655  -3.995   2.276  0.00  0.00     0.037 A 
ATOM     26  C   UNL d   1       3.978  -4.946   1.317  0.00  0.00     0.065 A 
ATOM     27  C   UNL d   1       3.970  -4.624  -0.035  0.00  0.00     0.037 A 
ATOM     28  C   UNL d   1       3.634  -3.328  -0.430  0.00  0.00     0.012 A 
BRANCH  26  29
ATOM     29  O   UNL d   1       4.299  -6.200   1.745  0.00  0.00    -0.361 OA
ATOM     30  H   UNL d   1       4.485  -6.749   0.966  0.00  0.00     0.217 HD
ENDBRANCH  26  29
ENDBRANCH  13  23
BRANCH  18  31
ATOM     31  O   UNL d   1       0.626   3.185  -1.953  0.00  0.00    -0.360 OA
ATOM     32  H   UNL d   1       0.018   2.732  -1.345  0.00  0.00     0.217 HD
ENDBRANCH  18  31
BRANCH  20  33
ATOM     33  O   UNL d   1       4.942   2.961  -3.879  0.00  0.00    -0.361 OA
ATOM     34  H   UNL d   1       4.612   3.799  -4.244  0.00  0.00     0.217 HD
ENDBRANCH  20  33
ENDBRANCH   2  11
BRANCH   8  35
ATOM     35  O   UNL d   1       3.013   2.169   1.086  0.00  0.00    -0.360 OA
ATOM     36  H   UNL d   1       3.517   2.893   1.491  0.00  0.00     0.217 HD
ENDBRANCH   8  35
BRANCH   6  37
ATOM     37  C   UNL d   1      -3.704  -0.244   0.424  0.00  0.00    -0.021 A 
ATOM     38  C   UNL d   1      -4.593  -1.211   0.926  0.00  0.00     0.049 A 
ATOM     39  C   UNL d   1      -5.512  -1.831   0.073  0.00  0.00     0.102 A 
ATOM     40  C   UNL d   1      -5.555  -1.514  -1.288  0.00  0.00     0.134 A 
ATOM     41  C   UNL d   1      -4.688  -0.537  -1.785  0.00  0.00     0.102 A 
ATOM     42  C   UNL d   1      -3.771   0.093  -0.939  0.00  0.00     0.049 A 
BRANCH  39  43
ATOM     43  O   UNL d   1      -6.372  -2.774   0.568  0.00  0.00    -0.358 OA
ATOM     44  H   UNL d   1      -6.221  -2.882   1.519  0.00  0.00     0.217 HD
ENDBRANCH  39  43
BRANCH  40  45
ATOM     45  O   UNL d   1      -6.508  -2.137  -2.053  0.00  0.00    -0.351 OA
ATOM     46  C   UNL d   1      -5.951  -2.814  -3.176  0.00  0.00     0.210 C 
ENDBRANCH  40  45
BRANCH  41  47
ATOM     47  O   UNL d   1      -4.743  -0.172  -3.103  0.00  0.00    -0.358 OA
ATOM     48  H   UNL d   1      -4.104   0.543  -3.254  0.00  0.00     0.217 HD
ENDBRANCH  41  47
ENDBRANCH   6  37
BRANCH   9  49
ATOM     49  O   UNL d   1      -0.235   3.715   4.198  0.00  0.00    -0.360 OA
ATOM     50  H   UNL d   1       0.554   4.184   4.514  0.00  0.00     0.217 HD
ENDBRANCH   9  49
BRANCH   5  51
ATOM     51  O   UNL d   1      -3.597   2.717   0.976  0.00  0.00    -0.392 OA
ATOM     52  H   UNL d   1      -3.986   3.488   1.424  0.00  0.00     0.210 HD
ENDBRANCH   5  51
TORSDOF 13
