REMARK  4 active torsions:
REMARK  status: ('A' for Active; 'I' for Inactive)
REMARK    1  A    between atoms: C_1  and  C_5 
REMARK    2  A    between atoms: C_5  and  C_8 
REMARK    3  A    between atoms: C_8  and  C_9 
REMARK    4  A    between atoms: C_9  and  C_12 
ROOT
ATOM      1  C   UNL d   1      -0.063   1.631   0.208  0.00  0.00    -0.085 C 
ATOM      2  C   UNL d   1      -0.450   2.917   0.122  0.00  0.00     0.014 C 
ENDROOT
BRANCH   1   3
ATOM      3  C   UNL d   1      -1.061   0.479   0.152  0.00  0.00     0.017 C 
ATOM      4  C   UNL d   1      -2.095   0.545   1.288  0.00  0.00     0.013 C 
ATOM      5  C   UNL d   1      -3.040  -0.661   1.250  0.00  0.00     0.034 C 
ATOM      6  C   UNL d   1      -3.525  -1.009  -0.134  0.00  0.00    -0.087 C 
ATOM      7  C   UNL d   1      -2.951  -0.507  -1.240  0.00  0.00    -0.024 C 
ATOM      8  C   UNL d   1      -4.693  -1.950  -0.205  0.00  0.00     0.043 C 
ATOM      9  C   UNL d   1      -1.767   0.414  -1.219  0.00  0.00     0.036 C 
ENDBRANCH   1   3
BRANCH   1  10
ATOM     10  C   UNL d   1       1.399   1.272   0.392  0.00  0.00     0.037 C 
BRANCH  10  11
ATOM     11  C   UNL d   1       1.980   0.463  -0.776  0.00  0.00     0.031 C 
BRANCH  11  12
ATOM     12  C   UNL d   1       3.455   0.213  -0.596  0.00  0.00    -0.024 C 
ATOM     13  C   UNL d   1       4.021  -0.855  -0.001  0.00  0.00    -0.091 C 
ATOM     14  C   UNL d   1       5.518  -0.998   0.094  0.00  0.00     0.042 C 
ATOM     15  C   UNL d   1       3.251  -1.979   0.635  0.00  0.00     0.042 C 
ENDBRANCH  11  12
ENDBRANCH  10  11
ENDBRANCH   1  10
TORSDOF 4
