REMARK  1 active torsions:
REMARK  status: ('A' for Active; 'I' for Inactive)
REMARK    1  A    between atoms: C_1  and  C_5 
ROOT
ATOM      1  C   UNL d   1       0.498   0.303   0.236  0.00  0.00    -0.026 A 
ATOM      2  C   UNL d   1      -0.734   0.758  -0.538  0.00  0.00     0.024 A 
ATOM      3  C   UNL d   1      -0.086   1.688   0.447  0.00  0.00     0.020 A 
ATOM      4  C   UNL d   1       0.043  -0.841   1.148  0.00  0.00     0.038 A 
ATOM      5  C   UNL d   1      -1.814  -0.146  -0.098  0.00  0.00    -0.083 A 
ATOM      6  C   UNL d   1      -1.417  -1.040   0.825  0.00  0.00    -0.023 A 
ATOM      7  C   UNL d   1      -3.184  -0.025  -0.665  0.00  0.00     0.043 C 
ENDROOT
BRANCH   1   8
ATOM      8  C   UNL d   1       1.838   0.181  -0.465  0.00  0.00    -0.013 C 
ATOM      9  C   UNL d   1       2.978   0.075   0.548  0.00  0.00     0.010 C 
ATOM     10  C   UNL d   1       1.870  -0.992  -1.444  0.00  0.00     0.010 C 
ENDBRANCH   1   8
TORSDOF 1
