REMARK  2 active torsions:
REMARK  status: ('A' for Active; 'I' for Inactive)
REMARK    1  A    between atoms: O_1  and  C_4 
REMARK    2  A    between atoms: C_5  and  C_12 
ROOT
ATOM      1  C   UNL d   1      -0.975  -1.097  -0.140  0.00  0.00    -0.034 C 
ATOM      2  C   UNL d   1      -0.757   0.348   0.405  0.00  0.00     0.051 C 
ATOM      3  C   UNL d   1       0.646   0.895   0.060  0.00  0.00     0.131 C 
ATOM      4  C   UNL d   1       1.765  -0.067   0.522  0.00  0.00     0.018 C 
ATOM      5  C   UNL d   1       0.158  -2.015   0.370  0.00  0.00     0.010 C 
ATOM      6  C   UNL d   1       1.544  -1.502   0.024  0.00  0.00     0.008 C 
ATOM      7  C   UNL d   1      -2.323  -1.642   0.410  0.00  0.00     0.010 C 
ATOM      8  C   UNL d   1      -1.947   1.223   0.018  0.00  0.00    -0.082 C 
ATOM      9  C   UNL d   1      -3.517  -0.725   0.125  0.00  0.00     0.005 C 
ATOM     10  C   UNL d   1      -1.007  -1.143  -1.690  0.00  0.00     0.016 C 
ATOM     11  C   UNL d   1      -3.260   0.716   0.564  0.00  0.00     0.034 C 
ATOM     12  C   UNL d   1      -1.900   2.328  -0.745  0.00  0.00     0.015 C 
ENDROOT
BRANCH   4  13
ATOM     13  C   UNL d   1       3.158   0.447   0.092  0.00  0.00    -0.016 C 
ATOM     14  C   UNL d   1       4.261  -0.421   0.702  0.00  0.00     0.010 C 
ATOM     15  C   UNL d   1       3.280   0.483  -1.432  0.00  0.00     0.010 C 
ENDBRANCH   4  13
BRANCH   3  16
ATOM     16  O   UNL d   1       0.855   2.157   0.709  0.00  0.00    -0.394 OA
ATOM     17  H   UNL d   1       0.767   2.014   1.666  0.00  0.00     0.210 HD
ENDBRANCH   3  16
TORSDOF 2
