REMARK  6 active torsions:
REMARK  status: ('A' for Active; 'I' for Inactive)
REMARK    1  A    between atoms: O_2  and  C_7 
REMARK    2  A    between atoms: O_3  and  C_8 
REMARK    3  A    between atoms: O_4  and  C_10 
REMARK    4  A    between atoms: O_5  and  C_11 
REMARK    5  A    between atoms: O_6  and  C_12 
REMARK    6  A    between atoms: C_9  and  C_12 
ROOT
ATOM      1  O   UNL d   1      -0.652   1.130   0.105  0.00  0.00    -0.349 OA
ATOM      2  C   UNL d   1      -0.139  -1.268   0.120  0.00  0.00     0.180 C 
ATOM      3  C   UNL d   1       1.238  -0.943  -0.477  0.00  0.00     0.183 C 
ATOM      4  C   UNL d   1      -1.149  -0.172  -0.252  0.00  0.00     0.179 C 
ATOM      5  C   UNL d   1       1.671   0.493  -0.150  0.00  0.00     0.204 C 
ATOM      6  C   UNL d   1       0.555   1.458  -0.587  0.00  0.00     0.288 C 
ENDROOT
BRANCH   4   7
ATOM      7  C   UNL d   1      -2.482  -0.368   0.478  0.00  0.00     0.198 C 
BRANCH   7   8
ATOM      8  O   UNL d   1      -3.392   0.659   0.085  0.00  0.00    -0.398 OA
ATOM      9  H   UNL d   1      -2.920   1.503   0.227  0.00  0.00     0.209 HD
ENDBRANCH   7   8
ENDBRANCH   4   7
BRANCH   2  10
ATOM     10  O   UNL d   1      -0.553  -2.561  -0.336  0.00  0.00    -0.390 OA
ATOM     11  H   UNL d   1      -0.716  -2.524  -1.296  0.00  0.00     0.210 HD
ENDBRANCH   2  10
BRANCH   6  12
ATOM     12  O   UNL d   1       0.902   2.791  -0.252  0.00  0.00    -0.369 OA
ATOM     13  H   UNL d   1       1.450   2.730   0.553  0.00  0.00     0.212 HD
ENDBRANCH   6  12
BRANCH   3  14
ATOM     14  O   UNL d   1       2.207  -1.892  -0.023  0.00  0.00    -0.390 OA
ATOM     15  H   UNL d   1       1.766  -2.763  -0.006  0.00  0.00     0.210 HD
ENDBRANCH   3  14
BRANCH   5  16
ATOM     16  O   UNL d   1       1.897   0.682   1.264  0.00  0.00    -0.388 OA
ATOM     17  H   UNL d   1       1.030   0.666   1.710  0.00  0.00     0.210 HD
ENDBRANCH   5  16
TORSDOF 6
