REMARK  1 active torsions:
REMARK  status: ('A' for Active; 'I' for Inactive)
REMARK    1  A    between atoms: C_5  and  C_12 
ROOT
ATOM      1  C   UNL d   1       0.987  -1.037   0.024  0.00  0.00    -0.036 C 
ATOM      2  C   UNL d   1       0.686   0.431  -0.421  0.00  0.00     0.022 C 
ATOM      3  C   UNL d   1      -0.091  -1.971  -0.580  0.00  0.00     0.010 C 
ATOM      4  C   UNL d   1      -0.714   0.863   0.049  0.00  0.00     0.018 C 
ATOM      5  C   UNL d   1      -1.800  -0.088  -0.492  0.00  0.00     0.014 C 
ATOM      6  C   UNL d   1       2.372  -1.425  -0.538  0.00  0.00     0.013 C 
ATOM      7  C   UNL d   1      -1.512  -1.566  -0.190  0.00  0.00     0.010 C 
ATOM      8  C   UNL d   1       1.819   1.389  -0.070  0.00  0.00    -0.083 C 
ATOM      9  C   UNL d   1       0.998  -1.211   1.567  0.00  0.00     0.016 C 
ATOM     10  C   UNL d   1       3.488  -0.500  -0.045  0.00  0.00     0.028 C 
ATOM     11  C   UNL d   1       3.078   0.940   0.086  0.00  0.00    -0.024 C 
ATOM     12  C   UNL d   1       1.513   2.858   0.029  0.00  0.00     0.043 C 
ENDROOT
BRANCH   5  13
ATOM     13  C   UNL d   1      -3.185   0.321  -0.015  0.00  0.00    -0.089 C 
ATOM     14  C   UNL d   1      -3.470   0.271   1.464  0.00  0.00     0.043 C 
ATOM     15  C   UNL d   1      -4.123   0.716  -0.891  0.00  0.00     0.014 C 
ENDBRANCH   5  13
TORSDOF 1
