REMARK  4 active torsions:
REMARK  status: ('A' for Active; 'I' for Inactive)
REMARK    1  A    between atoms: O_3  and  C_8 
REMARK    2  A    between atoms: O_4  and  C_9 
REMARK    3  A    between atoms: C_5  and  C_11 
REMARK    4  A    between atoms: C_11  and  C_13 
ROOT
ATOM      1  O   UNL d   1      -0.989  -2.397  -0.093  0.00  0.00    -0.320 OA
ATOM      2  O   UNL d   1      -2.768  -0.864   0.428  0.00  0.00    -0.320 OA
ATOM      3  C   UNL d   1       0.949   0.738  -0.412  0.00  0.00    -0.016 A 
ATOM      4  C   UNL d   1      -0.568  -1.100  -0.115  0.00  0.00     0.141 A 
ATOM      5  C   UNL d   1      -1.591  -0.225   0.178  0.00  0.00     0.141 A 
ATOM      6  C   UNL d   1       0.713  -0.650  -0.400  0.00  0.00     0.111 A 
ATOM      7  C   UNL d   1      -1.385   1.141   0.195  0.00  0.00     0.105 A 
ATOM      8  C   UNL d   1      -0.106   1.624  -0.087  0.00  0.00     0.050 A 
ATOM      9  C   UNL d   1      -2.375  -2.237   0.257  0.00  0.00     0.352 A 
ENDROOT
BRANCH   3  10
ATOM     10  C   UNL d   1       2.322   1.298  -0.711  0.00  0.00     0.068 C 
BRANCH  10  11
ATOM     11  C   UNL d   1       3.176   1.420   0.521  0.00  0.00    -0.032 C 
ATOM     12  C   UNL d   1       4.363   0.818   0.676  0.00  0.00     0.007 C 
ENDBRANCH  10  11
ENDBRANCH   3  10
BRANCH   6  13
ATOM     13  O   UNL d   1       1.745  -1.482  -0.738  0.00  0.00    -0.352 OA
ATOM     14  C   UNL d   1       2.014  -2.465   0.261  0.00  0.00     0.210 C 
ENDBRANCH   6  13
BRANCH   7  15
ATOM     15  O   UNL d   1      -2.365   2.010   0.578  0.00  0.00    -0.353 OA
ATOM     16  C   UNL d   1      -3.128   2.439  -0.548  0.00  0.00     0.210 C 
ENDBRANCH   7  15
TORSDOF 4
