REMARK  5 active torsions:
REMARK  status: ('A' for Active; 'I' for Inactive)
REMARK    1  A    between atoms: O_2  and  C_12 
REMARK    2  A    between atoms: N_6  and  C_9 
REMARK    3  A    between atoms: N_7  and  CA_10 
REMARK    4  A    between atoms: C_9  and  CA_10 
REMARK    5  A    between atoms: CA_10  and  C_12 
ROOT
ATOM      1  C   UNL d   1       0.744  -0.880   1.070  0.00  0.00     0.208 C 
ENDROOT
BRANCH   1   2
ATOM      2  N   UNL d   1      -0.573  -0.361   0.738  0.00  0.00    -0.194 N 
ATOM      3  O   UNL d   1      -1.471  -1.192   0.026  0.00  0.00    -0.174 OA
ATOM      4  C   UNL d   1      -2.511  -0.377  -0.358  0.00  0.00     0.391 C 
ATOM      5  O   UNL d   1      -3.493  -0.741  -0.978  0.00  0.00    -0.236 OA
ATOM      6  N   UNL d   1      -2.251   0.886   0.047  0.00  0.00    -0.251 N 
ATOM      7  C   UNL d   1      -1.030   0.930   0.629  0.00  0.00     0.351 C 
ATOM      8  H   UNL d   1      -2.816   1.685  -0.169  0.00  0.00     0.176 HD
ATOM      9  O   UNL d   1      -0.448   1.947   0.967  0.00  0.00    -0.244 OA
ENDBRANCH   1   2
BRANCH   1  10
ATOM     10  CA  UNL d   1       1.733  -0.975  -0.100  0.00  0.00     0.334 C 
BRANCH  10  11
ATOM     11  N   UNL d   1       2.970  -1.664   0.349  0.00  0.00     0.095 N 
ATOM     12  H1  UNL d   1       3.676  -1.611  -0.386  0.00  0.00     0.314 HD
ATOM     13  H2  UNL d   1       2.784  -2.652   0.513  0.00  0.00     0.314 HD
ENDBRANCH  10  11
BRANCH  10  14
ATOM     14  C   UNL d   1       2.078   0.420  -0.625  0.00  0.00     0.175 C 
ATOM     15  OXT UNL d   1       3.019   1.127  -0.303  0.00  0.00    -0.648 OA
BRANCH  14  16
ATOM     16  O   UNL d   1       1.222   0.834  -1.585  0.00  0.00    -0.775 OA
ATOM     17  H   UNL d   1       1.560   1.729  -1.812  0.00  0.00     0.167 HD
ENDBRANCH  14  16
ENDBRANCH  10  14
ENDBRANCH   1  10
TORSDOF 5
