REMARK  6 active torsions:
REMARK  status: ('A' for Active; 'I' for Inactive)
REMARK    1  A    between atoms: O_1  and  C_7 
REMARK    2  A    between atoms: O_2  and  C_9 
REMARK    3  A    between atoms: O_3  and  C_10 
REMARK    4  A    between atoms: C_5  and  C_6 
REMARK    5  A    between atoms: C_6  and  C_11 
REMARK    6  A    between atoms: C_8  and  C_14 
ROOT
ATOM      1  C   UNL d   1      -0.436   0.836  -0.516  0.00  0.00     0.013 A 
ATOM      2  C   UNL d   1       0.369  -0.310  -0.335  0.00  0.00     0.094 A 
ATOM      3  C   UNL d   1       1.700  -0.189   0.095  0.00  0.00     0.076 A 
ATOM      4  C   UNL d   1       0.146   2.089  -0.265  0.00  0.00     0.077 A 
ATOM      5  C   UNL d   1       2.250   1.071   0.330  0.00  0.00     0.085 A 
ATOM      6  C   UNL d   1       1.477   2.211   0.137  0.00  0.00     0.074 A 
ENDROOT
BRANCH   1   7
ATOM      7  C   UNL d   1      -1.877   0.698  -0.955  0.00  0.00     0.072 C 
BRANCH   7   8
ATOM      8  C   UNL d   1      -2.827   0.586   0.207  0.00  0.00    -0.020 C 
ATOM      9  C   UNL d   1      -3.639  -0.455   0.487  0.00  0.00    -0.091 C 
ATOM     10  C   UNL d   1      -4.522  -0.446   1.705  0.00  0.00     0.042 C 
ATOM     11  C   UNL d   1      -3.733  -1.703  -0.347  0.00  0.00     0.042 C 
ENDBRANCH   7   8
ENDBRANCH   1   7
BRANCH   2  12
ATOM     12  O   UNL d   1      -0.196  -1.555  -0.475  0.00  0.00    -0.354 OA
ATOM     13  C   UNL d   1      -0.008  -2.070  -1.796  0.00  0.00     0.210 C 
ENDBRANCH   2  12
BRANCH   4  14
ATOM     14  O   UNL d   1      -0.538   3.268  -0.377  0.00  0.00    -0.360 OA
ATOM     15  H   UNL d   1      -1.494   3.098  -0.395  0.00  0.00     0.217 HD
ENDBRANCH   4  14
BRANCH   3  16
ATOM     16  C   UNL d   1       2.523  -1.394   0.294  0.00  0.00     0.161 C 
ATOM     17  O   UNL d   1       3.135  -1.870  -0.661  0.00  0.00    -0.293 OA
ATOM     18  C   UNL d   1       2.543  -2.002   1.666  0.00  0.00     0.097 C 
ENDBRANCH   3  16
BRANCH   5  19
ATOM     19  O   UNL d   1       3.538   1.190   0.774  0.00  0.00    -0.360 OA
ATOM     20  H   UNL d   1       3.786   2.131   0.792  0.00  0.00     0.217 HD
ENDBRANCH   5  19
TORSDOF 6
