REMARK  6 active torsions:
REMARK  status: ('A' for Active; 'I' for Inactive)
REMARK    1  A    between atoms: O_1  and  C_2 
REMARK    2  A    between atoms: C_2  and  C_3 
REMARK    3  A    between atoms: C_3  and  C_4 
REMARK    4  A    between atoms: C_4  and  C_5 
REMARK    5  A    between atoms: C_5  and  C_8 
REMARK    6  A    between atoms: C_8  and  C_9 
ROOT
ATOM      1  C   UNL d   1       1.281  -0.203   0.765  0.00  0.00     0.037 C 
ENDROOT
BRANCH   1   2
ATOM      2  C   UNL d   1       2.561   0.060  -0.054  0.00  0.00     0.051 C 
ATOM      3  C   UNL d   1       3.776   0.101   0.880  0.00  0.00     0.045 C 
ATOM      4  C   UNL d   1       2.486   1.360  -0.858  0.00  0.00     0.045 C 
BRANCH   2   5
ATOM      5  O   UNL d   1       2.754  -1.018  -0.973  0.00  0.00    -0.391 OA
ATOM      6  H   UNL d   1       2.814  -1.842  -0.456  0.00  0.00     0.210 HD
ENDBRANCH   2   5
ENDBRANCH   1   2
BRANCH   1   7
ATOM      7  C   UNL d   1      -0.006  -0.256  -0.068  0.00  0.00     0.007 C 
BRANCH   7   8
ATOM      8  C   UNL d   1      -1.226  -0.510   0.826  0.00  0.00     0.038 C 
BRANCH   8   9
ATOM      9  C   UNL d   1      -2.517  -0.521   0.035  0.00  0.00    -0.068 C 
ATOM     10  C   UNL d   1      -3.028  -1.689  -0.393  0.00  0.00     0.019 C 
BRANCH   9  11
ATOM     11  C   UNL d   1      -3.221   0.718  -0.261  0.00  0.00    -0.004 C 
ATOM     12  C   UNL d   1      -2.857   1.957   0.099  0.00  0.00     0.012 C 
ENDBRANCH   9  11
ENDBRANCH   8   9
ENDBRANCH   7   8
ENDBRANCH   1   7
TORSDOF 6
