REMARK  3 active torsions:
REMARK  status: ('A' for Active; 'I' for Inactive)
REMARK    1  A    between atoms: C_1  and  C_3 
REMARK    2  A    between atoms: C_1  and  C_4 
REMARK    3  A    between atoms: C_5  and  C_9 
ROOT
ATOM      1  C   UNL d   1      -0.575  -0.824  -1.094  0.00  0.00     0.055 C 
ENDROOT
BRANCH   1   2
ATOM      2  C   UNL d   1      -1.817  -0.891  -0.245  0.00  0.00    -0.021 C 
ATOM      3  C   UNL d   1      -2.558   0.146   0.194  0.00  0.00    -0.091 C 
ATOM      4  C   UNL d   1      -3.802  -0.068   1.016  0.00  0.00     0.042 C 
ATOM      5  C   UNL d   1      -2.225   1.591  -0.059  0.00  0.00     0.042 C 
ENDBRANCH   1   2
BRANCH   1   6
ATOM      6  C   UNL d   1       0.670  -0.928  -0.255  0.00  0.00    -0.016 C 
ATOM      7  C   UNL d   1       1.722  -0.082  -0.193  0.00  0.00    -0.066 C 
ATOM      8  C   UNL d   1       1.840   1.190  -0.995  0.00  0.00     0.048 C 
BRANCH   7   9
ATOM      9  C   UNL d   1       2.824  -0.414   0.708  0.00  0.00    -0.004 C 
ATOM     10  C   UNL d   1       3.948   0.293   0.896  0.00  0.00     0.012 C 
ENDBRANCH   7   9
ENDBRANCH   1   6
TORSDOF 3
