REMARK  5 active torsions:
REMARK  status: ('A' for Active; 'I' for Inactive)
REMARK    1  A    between atoms: O_1  and  C_7 
REMARK    2  A    between atoms: O_2  and  C_8 
REMARK    3  A    between atoms: O_3  and  C_9 
REMARK    4  A    between atoms: O_4  and  C_12 
REMARK    5  A    between atoms: C_6  and  C_12 
ROOT
ATOM      1  C   UNL d   1      -1.035   0.007  -0.000  0.00  0.00     0.043 A 
ATOM      2  C   UNL d   1       1.745  -0.011  -0.000  0.00  0.00     0.132 A 
ATOM      3  C   UNL d   1       1.062   1.202  -0.000  0.00  0.00     0.102 A 
ATOM      4  C   UNL d   1       1.042  -1.209  -0.000  0.00  0.00     0.102 A 
ATOM      5  C   UNL d   1      -0.328   1.223  -0.000  0.00  0.00     0.057 A 
ATOM      6  C   UNL d   1      -0.344  -1.213   0.000  0.00  0.00     0.057 A 
ENDROOT
BRANCH   1   7
ATOM      7  C   UNL d   1      -2.517   0.054  -0.001  0.00  0.00     0.176 C 
ATOM      8  O   UNL d   1      -3.194   1.065  -0.002  0.00  0.00    -0.646 OA
BRANCH   7   9
ATOM      9  O   UNL d   1      -3.071  -1.171  -0.000  0.00  0.00    -0.773 OA
ATOM     10  H   UNL d   1      -4.036  -1.010  -0.001  0.00  0.00     0.167 HD
ENDBRANCH   7   9
ENDBRANCH   1   7
BRANCH   3  11
ATOM     11  O   UNL d   1       1.807   2.350  -0.000  0.00  0.00    -0.358 OA
ATOM     12  H   UNL d   1       1.199   3.110  -0.000  0.00  0.00     0.217 HD
ENDBRANCH   3  11
BRANCH   4  13
ATOM     13  O   UNL d   1       1.712  -2.399  -0.000  0.00  0.00    -0.358 OA
ATOM     14  H   UNL d   1       2.659  -2.154  -0.001  0.00  0.00     0.217 HD
ENDBRANCH   4  13
BRANCH   2  15
ATOM     15  O   UNL d   1       3.113  -0.044  -0.001  0.00  0.00    -0.356 OA
ATOM     16  H   UNL d   1       3.379   0.899  -0.001  0.00  0.00     0.218 HD
ENDBRANCH   2  15
TORSDOF 5
