REMARK  5 active torsions:
REMARK  status: ('A' for Active; 'I' for Inactive)
REMARK    1  A    between atoms: O_2  and  C_6 
REMARK    2  A    between atoms: O_3  and  C_12 
REMARK    3  A    between atoms: O_4  and  C_17 
REMARK    4  A    between atoms: O_5  and  C_20 
REMARK    5  A    between atoms: C_7  and  C_11 
ROOT
ATOM      1  O   UNL d   1       0.200   0.734  -0.151  0.00  0.00    -0.338 OA
ATOM      2  C   UNL d   1      -0.176  -1.681   0.248  0.00  0.00     0.156 C 
ATOM      3  C   UNL d   1      -0.584  -0.411  -0.524  0.00  0.00     0.191 C 
ATOM      4  C   UNL d   1       1.282  -1.999  -0.074  0.00  0.00     0.079 C 
ATOM      5  C   UNL d   1       2.135  -0.758  -0.079  0.00  0.00     0.011 A 
ATOM      6  C   UNL d   1       1.551   0.514  -0.115  0.00  0.00     0.081 A 
ATOM      7  C   UNL d   1       3.531  -0.850  -0.066  0.00  0.00     0.077 A 
ATOM      8  C   UNL d   1       2.343   1.664  -0.089  0.00  0.00     0.074 A 
ATOM      9  C   UNL d   1       4.333   0.291  -0.052  0.00  0.00     0.073 A 
ATOM     10  C   UNL d   1       3.726   1.542  -0.059  0.00  0.00     0.071 A 
ENDROOT
BRANCH   3  11
ATOM     11  C   UNL d   1      -2.056  -0.084  -0.324  0.00  0.00    -0.026 A 
ATOM     12  C   UNL d   1      -3.021  -0.626  -1.189  0.00  0.00     0.012 A 
ATOM     13  C   UNL d   1      -4.375  -0.341  -1.004  0.00  0.00     0.037 A 
ATOM     14  C   UNL d   1      -4.770   0.477   0.048  0.00  0.00     0.065 A 
ATOM     15  C   UNL d   1      -3.834   1.016   0.923  0.00  0.00     0.037 A 
ATOM     16  C   UNL d   1      -2.481   0.733   0.737  0.00  0.00     0.012 A 
BRANCH  14  17
ATOM     17  O   UNL d   1      -6.101   0.734   0.195  0.00  0.00    -0.361 OA
ATOM     18  H   UNL d   1      -6.216   1.324   0.958  0.00  0.00     0.217 HD
ENDBRANCH  14  17
ENDBRANCH   3  11
BRANCH   2  19
ATOM     19  O   UNL d   1      -0.314  -1.542   1.672  0.00  0.00    -0.392 OA
ATOM     20  H   UNL d   1      -1.264  -1.453   1.861  0.00  0.00     0.210 HD
ENDBRANCH   2  19
BRANCH   7  21
ATOM     21  O   UNL d   1       4.109  -2.090  -0.072  0.00  0.00    -0.360 OA
ATOM     22  H   UNL d   1       5.074  -1.982  -0.028  0.00  0.00     0.217 HD
ENDBRANCH   7  21
BRANCH  10  23
ATOM     23  O   UNL d   1       4.533   2.642  -0.043  0.00  0.00    -0.361 OA
ATOM     24  H   UNL d   1       3.970   3.435  -0.046  0.00  0.00     0.217 HD
ENDBRANCH  10  23
TORSDOF 5
