REMARK  2 active torsions:
REMARK  status: ('A' for Active; 'I' for Inactive)
REMARK    1  A    between atoms: C_3  and  C_7 
REMARK    2  A    between atoms: C_7  and  C_11 
ROOT
ATOM      1  C   UNL d   1      -0.918  -0.665  -0.018  0.00  0.00    -0.021 C 
ATOM      2  C   UNL d   1       0.449  -0.056   0.434  0.00  0.00     0.007 C 
ATOM      3  C   UNL d   1       0.399   1.415  -0.004  0.00  0.00     0.033 C 
ATOM      4  C   UNL d   1      -1.795   0.575   0.017  0.00  0.00    -0.079 C 
ATOM      5  C   UNL d   1      -1.064   1.698   0.018  0.00  0.00    -0.023 C 
ATOM      6  C   UNL d   1      -0.895  -1.249  -1.440  0.00  0.00     0.020 C 
ATOM      7  C   UNL d   1      -1.372  -1.745   0.973  0.00  0.00     0.020 C 
ATOM      8  C   UNL d   1      -3.284   0.514  -0.005  0.00  0.00     0.044 C 
ENDROOT
BRANCH   2   9
ATOM      9  C   UNL d   1       1.703  -0.773  -0.062  0.00  0.00     0.075 C 
BRANCH   9  10
ATOM     10  C   UNL d   1       2.965  -0.096   0.416  0.00  0.00     0.231 C 
ATOM     11  O   UNL d   1       3.812   0.381  -0.328  0.00  0.00    -0.307 OA
ENDBRANCH   9  10
ENDBRANCH   2   9
TORSDOF 2
