REMARK  0 active torsions:
REMARK  status: ('A' for Active; 'I' for Inactive)
ROOT
ATOM      1  C   UNL d   1      -0.162   0.891  -0.000  0.00  0.00    -0.029 A 
ATOM      2  C   UNL d   1       1.138   0.757   0.745  0.00  0.00    -0.000 A 
ATOM      3  C   UNL d   1       1.138   0.756  -0.746  0.00  0.00    -0.000 A 
ATOM      4  C   UNL d   1      -0.850  -0.476   0.001  0.00  0.00    -0.036 C 
ATOM      5  C   UNL d   1       0.507  -1.304   0.001  0.00  0.00    -0.005 C 
ATOM      6  C   UNL d   1       1.296  -0.676   1.199  0.00  0.00     0.011 C 
ATOM      7  C   UNL d   1       1.296  -0.677  -1.199  0.00  0.00     0.011 C 
ATOM      8  C   UNL d   1      -0.934   2.159  -0.001  0.00  0.00     0.016 C 
ATOM      9  C   UNL d   1      -1.711  -0.712  -1.246  0.00  0.00     0.016 C 
ATOM     10  C   UNL d   1      -1.710  -0.711   1.248  0.00  0.00     0.016 C 
ENDROOT
TORSDOF 0
