REMARK  1 active torsions:
REMARK  status: ('A' for Active; 'I' for Inactive)
REMARK    1  A    between atoms: C_1  and  C_7 
ROOT
ATOM      1  C   UNL d   1       0.718  -0.041  -0.348  0.00  0.00     0.017 C 
ATOM      2  C   UNL d   1       0.021  -1.215   0.355  0.00  0.00     0.013 C 
ATOM      3  C   UNL d   1       0.017   1.294  -0.025  0.00  0.00     0.036 C 
ATOM      4  C   UNL d   1      -1.456  -1.301  -0.025  0.00  0.00     0.034 C 
ATOM      5  C   UNL d   1      -2.153   0.037  -0.046  0.00  0.00    -0.087 C 
ATOM      6  C   UNL d   1      -1.478   1.200  -0.034  0.00  0.00    -0.024 C 
ATOM      7  C   UNL d   1      -3.651  -0.005  -0.081  0.00  0.00     0.043 C 
ENDROOT
BRANCH   1   8
ATOM      8  C   UNL d   1       2.191   0.008   0.017  0.00  0.00    -0.089 C 
ATOM      9  C   UNL d   1       3.164  -0.169  -1.112  0.00  0.00     0.043 C 
ATOM     10  C   UNL d   1       2.604   0.191   1.285  0.00  0.00     0.014 C 
ENDBRANCH   1   8
TORSDOF 1
