REMARK  0 active torsions:
REMARK  status: ('A' for Active; 'I' for Inactive)
ROOT
ATOM      1  C   UNL d   1       0.472  -1.136   0.423  0.00  0.00    -0.002 C 
ATOM      2  C   UNL d   1      -0.881  -0.491  -0.027  0.00  0.00    -0.021 C 
ATOM      3  C   UNL d   1       0.995   1.036   0.397  0.00  0.00     0.015 C 
ATOM      4  C   UNL d   1       1.021  -0.100   1.417  0.00  0.00     0.014 C 
ATOM      5  C   UNL d   1       1.556  -1.045  -0.675  0.00  0.00     0.006 C 
ATOM      6  C   UNL d   1       1.861   0.463  -0.738  0.00  0.00     0.009 C 
ATOM      7  C   UNL d   1      -0.455   0.975  -0.050  0.00  0.00    -0.077 C 
ATOM      8  C   UNL d   1      -1.369  -0.986  -1.396  0.00  0.00     0.020 C 
ATOM      9  C   UNL d   1      -1.988  -0.752   1.011  0.00  0.00     0.020 C 
ATOM     10  C   UNL d   1      -1.210   2.034  -0.361  0.00  0.00     0.015 C 
ENDROOT
TORSDOF 0
