REMARK  12 active torsions:
REMARK  status: ('A' for Active; 'I' for Inactive)
REMARK    1  A    between atoms: O_2  and  C_17 
REMARK    2  A    between atoms: O_2  and  C_19 
REMARK    3  A    between atoms: O_3  and  C_13 
REMARK    4  A    between atoms: O_4  and  C_14 
REMARK    5  A    between atoms: O_5  and  C_15 
REMARK    6  A    between atoms: O_6  and  C_18 
REMARK    7  A    between atoms: O_9  and  C_25 
REMARK    8  A    between atoms: O_10  and  C_30 
REMARK    9  A    between atoms: O_11  and  C_31 
REMARK   10  A    between atoms: O_12  and  C_33 
REMARK   11  A    between atoms: C_16  and  C_18 
REMARK   12  A    between atoms: C_20  and  C_24 
ROOT
ATOM      1  O   UNL d   1       1.950  -1.754  -0.173  0.00  0.00    -0.306 OA
ATOM      2  O   UNL d   1       1.692   2.057   1.250  0.00  0.00    -0.284 OA
ATOM      3  C   UNL d   1       0.568  -0.004   0.767  0.00  0.00     0.157 A 
ATOM      4  C   UNL d   1       0.754  -1.249   0.294  0.00  0.00     0.124 A 
ATOM      5  C   UNL d   1       1.746   0.907   0.823  0.00  0.00     0.223 A 
ATOM      6  C   UNL d   1       3.021   0.370   0.326  0.00  0.00     0.084 A 
ATOM      7  C   UNL d   1       3.053  -0.941  -0.145  0.00  0.00     0.096 A 
ATOM      8  C   UNL d   1       4.186   1.139   0.319  0.00  0.00     0.085 A 
ATOM      9  C   UNL d   1       4.242  -1.490  -0.625  0.00  0.00     0.075 A 
ATOM     10  C   UNL d   1       5.377   0.599  -0.161  0.00  0.00     0.074 A 
ATOM     11  C   UNL d   1       5.396  -0.713  -0.627  0.00  0.00     0.071 A 
ENDROOT
BRANCH   3  12
ATOM     12  O   UNL d   1      -0.646   0.438   1.260  0.00  0.00    -0.311 OA
BRANCH  12  13
ATOM     13  C   UNL d   1      -1.399   1.092   0.226  0.00  0.00     0.298 C 
ATOM     14  O   UNL d   1      -1.051   2.468   0.138  0.00  0.00    -0.348 OA
ATOM     15  C   UNL d   1      -1.813   3.163  -0.868  0.00  0.00     0.179 C 
ATOM     16  C   UNL d   1      -3.311   3.123  -0.537  0.00  0.00     0.180 C 
ATOM     17  C   UNL d   1      -3.762   1.667  -0.404  0.00  0.00     0.183 C 
ATOM     18  C   UNL d   1      -2.884   0.904   0.588  0.00  0.00     0.205 C 
BRANCH  15  19
ATOM     19  C   UNL d   1      -1.275   4.592  -0.930  0.00  0.00     0.198 C 
BRANCH  19  20
ATOM     20  O   UNL d   1       0.119   4.549  -1.245  0.00  0.00    -0.398 OA
ATOM     21  H   UNL d   1       0.520   4.010  -0.531  0.00  0.00     0.209 HD
ENDBRANCH  19  20
ENDBRANCH  15  19
BRANCH  16  22
ATOM     22  O   UNL d   1      -3.563   3.816   0.692  0.00  0.00    -0.390 OA
ATOM     23  H   UNL d   1      -4.506   3.660   0.897  0.00  0.00     0.210 HD
ENDBRANCH  16  22
BRANCH  17  24
ATOM     24  O   UNL d   1      -5.132   1.622   0.027  0.00  0.00    -0.390 OA
ATOM     25  H   UNL d   1      -5.328   0.670   0.145  0.00  0.00     0.210 HD
ENDBRANCH  17  24
BRANCH  18  26
ATOM     26  O   UNL d   1      -3.275  -0.479   0.553  0.00  0.00    -0.388 OA
ATOM     27  H   UNL d   1      -2.707  -0.938   1.203  0.00  0.00     0.210 HD
ENDBRANCH  18  26
ENDBRANCH  12  13
ENDBRANCH   3  12
BRANCH   4  28
ATOM     28  C   UNL d   1      -0.344  -2.223   0.213  0.00  0.00     0.004 A 
ATOM     29  C   UNL d   1      -1.142  -2.298  -0.936  0.00  0.00     0.053 A 
ATOM     30  C   UNL d   1      -2.191  -3.212  -0.988  0.00  0.00     0.099 A 
ATOM     31  C   UNL d   1      -2.442  -4.069   0.082  0.00  0.00     0.098 A 
ATOM     32  C   UNL d   1      -1.651  -3.999   1.223  0.00  0.00     0.040 A 
ATOM     33  C   UNL d   1      -0.603  -3.077   1.293  0.00  0.00     0.017 A 
BRANCH  30  34
ATOM     34  O   UNL d   1      -2.967  -3.253  -2.109  0.00  0.00    -0.358 OA
ATOM     35  H   UNL d   1      -3.635  -3.947  -1.936  0.00  0.00     0.217 HD
ENDBRANCH  30  34
BRANCH  31  36
ATOM     36  O   UNL d   1      -3.477  -4.948  -0.010  0.00  0.00    -0.358 OA
ATOM     37  H   UNL d   1      -3.506  -5.464   0.818  0.00  0.00     0.217 HD
ENDBRANCH  31  36
ENDBRANCH   4  28
BRANCH   8  38
ATOM     38  O   UNL d   1       4.226   2.436   0.764  0.00  0.00    -0.360 OA
ATOM     39  H   UNL d   1       3.328   2.688   1.069  0.00  0.00     0.217 HD
ENDBRANCH   8  38
BRANCH  11  40
ATOM     40  O   UNL d   1       6.576  -1.214  -1.089  0.00  0.00    -0.361 OA
ATOM     41  H   UNL d   1       6.442  -2.128  -1.385  0.00  0.00     0.217 HD
ENDBRANCH  11  40
TORSDOF 12
