REMARK  3 active torsions:
REMARK  status: ('A' for Active; 'I' for Inactive)
REMARK    1  A    between atoms: C_2  and  C_3 
REMARK    2  A    between atoms: C_2  and  C_4 
REMARK    3  A    between atoms: C_3  and  C_5 
ROOT
ATOM      1  C   UNL d   1      -0.509  -1.864  -0.141  0.00  0.00     0.044 C 
ENDROOT
BRANCH   1   2
ATOM      2  C   UNL d   1       0.929  -1.694   0.370  0.00  0.00     0.032 C 
BRANCH   2   3
ATOM      3  C   UNL d   1       1.749  -0.743  -0.465  0.00  0.00    -0.024 C 
ATOM      4  C   UNL d   1       2.386   0.368  -0.046  0.00  0.00    -0.091 C 
ATOM      5  C   UNL d   1       3.138   1.242  -1.016  0.00  0.00     0.042 C 
ATOM      6  C   UNL d   1       2.413   0.850   1.378  0.00  0.00     0.042 C 
ENDBRANCH   2   3
ENDBRANCH   1   2
BRANCH   1   7
ATOM      7  C   UNL d   1      -1.341  -0.626  -0.059  0.00  0.00    -0.034 A 
ATOM      8  C   UNL d   1      -1.638   0.153   1.097  0.00  0.00     0.033 A 
ATOM      9  C   UNL d   1      -2.436   1.190   0.676  0.00  0.00     0.142 A 
ATOM     10  O   UNL d   1      -2.666   1.099  -0.657  0.00  0.00    -0.334 OA
ATOM     11  C   UNL d   1      -2.002   0.001  -1.097  0.00  0.00     0.148 A 
ENDBRANCH   1   7
TORSDOF 3
