REMARK  13 active torsions:
REMARK  status: ('A' for Active; 'I' for Inactive)
REMARK    1  A    between atoms: O_3  and  C_14 
REMARK    2  A    between atoms: O_4  and  C_20 
REMARK    3  A    between atoms: O_5  and  C_21 
REMARK    4  A    between atoms: O_6  and  C_25 
REMARK    5  A    between atoms: O_7  and  C_27 
REMARK    6  A    between atoms: O_8  and  C_34 
REMARK    7  A    between atoms: O_9  and  C_37 
REMARK    8  A    between atoms: O_10  and  C_39 
REMARK    9  A    between atoms: O_11  and  C_40 
REMARK   10  A    between atoms: O_12  and  C_42 
REMARK   11  A    between atoms: C_13  and  C_16 
REMARK   12  A    between atoms: C_15  and  C_26 
REMARK   13  A    between atoms: C_23  and  C_30 
ROOT
ATOM      1  O   UNL d   1      -4.157   0.757  -0.670  0.00  0.00    -0.338 OA
ATOM      2  C   UNL d   1      -2.017   1.140   1.331  0.00  0.00     0.094 C 
ATOM      3  C   UNL d   1      -2.949  -0.089   1.322  0.00  0.00     0.165 C 
ATOM      4  C   UNL d   1      -3.437  -0.355  -0.114  0.00  0.00     0.191 C 
ATOM      5  C   UNL d   1      -2.530   2.236   0.412  0.00  0.00     0.020 A 
ATOM      6  C   UNL d   1      -3.536   1.970  -0.527  0.00  0.00     0.082 A 
ATOM      7  C   UNL d   1      -1.991   3.533   0.460  0.00  0.00     0.078 A 
ATOM      8  C   UNL d   1      -3.984   2.970  -1.395  0.00  0.00     0.074 A 
ATOM      9  C   UNL d   1      -2.419   4.529  -0.416  0.00  0.00     0.073 A 
ATOM     10  C   UNL d   1      -3.412   4.236  -1.340  0.00  0.00     0.071 A 
ENDROOT
BRANCH   2  11
ATOM     11  C   UNL d   1      -0.560   0.713   1.107  0.00  0.00     0.020 A 
ATOM     12  C   UNL d   1       0.054   0.667  -0.161  0.00  0.00     0.084 A 
ATOM     13  C   UNL d   1       1.415   0.353  -0.319  0.00  0.00     0.012 A 
ATOM     14  C   UNL d   1       2.074   0.384  -1.675  0.00  0.00     0.079 C 
ATOM     15  C   UNL d   1       2.147  -0.012   0.816  0.00  0.00     0.081 A 
ATOM     16  C   UNL d   1       3.593   0.292  -1.585  0.00  0.00     0.156 C 
ATOM     17  C   UNL d   1       3.953  -0.748  -0.509  0.00  0.00     0.191 C 
ATOM     18  O   UNL d   1       3.467  -0.376   0.788  0.00  0.00    -0.338 OA
ATOM     19  C   UNL d   1       1.557  -0.015   2.078  0.00  0.00     0.074 A 
ATOM     20  C   UNL d   1       0.218   0.342   2.216  0.00  0.00     0.078 A 
BRANCH  12  21
ATOM     21  O   UNL d   1      -0.727   0.897  -1.260  0.00  0.00    -0.359 OA
ATOM     22  H   UNL d   1      -0.191   1.063  -2.048  0.00  0.00     0.217 HD
ENDBRANCH  12  21
BRANCH  16  23
ATOM     23  O   UNL d   1       4.104   1.604  -1.303  0.00  0.00    -0.392 OA
ATOM     24  H   UNL d   1       5.075   1.542  -1.281  0.00  0.00     0.210 HD
ENDBRANCH  16  23
BRANCH  17  25
ATOM     25  C   UNL d   1       5.456  -0.966  -0.440  0.00  0.00    -0.024 A 
ATOM     26  C   UNL d   1       6.262  -0.198   0.418  0.00  0.00     0.049 A 
ATOM     27  C   UNL d   1       7.643  -0.383   0.433  0.00  0.00     0.099 A 
ATOM     28  C   UNL d   1       8.233  -1.331  -0.400  0.00  0.00     0.098 A 
ATOM     29  C   UNL d   1       7.448  -2.101  -1.255  0.00  0.00     0.040 A 
ATOM     30  C   UNL d   1       6.064  -1.917  -1.276  0.00  0.00     0.013 A 
BRANCH  27  31
ATOM     31  O   UNL d   1       8.428   0.369   1.260  0.00  0.00    -0.358 OA
ATOM     32  H   UNL d   1       7.861   0.930   1.812  0.00  0.00     0.217 HD
ENDBRANCH  27  31
BRANCH  28  33
ATOM     33  O   UNL d   1       9.590  -1.495  -0.373  0.00  0.00    -0.358 OA
ATOM     34  H   UNL d   1       9.836  -2.213  -0.975  0.00  0.00     0.217 HD
ENDBRANCH  28  33
ENDBRANCH  17  25
BRANCH  20  35
ATOM     35  O   UNL d   1      -0.365   0.303   3.454  0.00  0.00    -0.360 OA
ATOM     36  H   UNL d   1       0.328   0.152   4.120  0.00  0.00     0.217 HD
ENDBRANCH  20  35
ENDBRANCH   2  11
BRANCH   3  37
ATOM     37  O   UNL d   1      -4.060   0.137   2.218  0.00  0.00    -0.392 OA
ATOM     38  H   UNL d   1      -3.680   0.280   3.103  0.00  0.00     0.210 HD
ENDBRANCH   3  37
BRANCH   4  39
ATOM     39  C   UNL d   1      -4.301  -1.609  -0.199  0.00  0.00    -0.024 A 
ATOM     40  C   UNL d   1      -3.702  -2.857  -0.447  0.00  0.00     0.049 A 
ATOM     41  C   UNL d   1      -4.486  -4.003  -0.486  0.00  0.00     0.099 A 
ATOM     42  C   UNL d   1      -5.864  -3.924  -0.311  0.00  0.00     0.098 A 
ATOM     43  C   UNL d   1      -6.473  -2.706  -0.047  0.00  0.00     0.040 A 
ATOM     44  C   UNL d   1      -5.690  -1.551   0.011  0.00  0.00     0.013 A 
BRANCH  41  45
ATOM     45  O   UNL d   1      -3.877  -5.212  -0.661  0.00  0.00    -0.358 OA
ATOM     46  H   UNL d   1      -4.376  -5.841  -0.107  0.00  0.00     0.217 HD
ENDBRANCH  41  45
BRANCH  42  47
ATOM     47  O   UNL d   1      -6.641  -5.042  -0.417  0.00  0.00    -0.358 OA
ATOM     48  H   UNL d   1      -6.257  -5.565  -1.145  0.00  0.00     0.217 HD
ENDBRANCH  42  47
ENDBRANCH   4  39
BRANCH   7  49
ATOM     49  O   UNL d   1      -1.022   3.817   1.383  0.00  0.00    -0.360 OA
ATOM     50  H   UNL d   1      -0.688   4.714   1.219  0.00  0.00     0.217 HD
ENDBRANCH   7  49
BRANCH  10  51
ATOM     51  O   UNL d   1      -3.802   5.228  -2.191  0.00  0.00    -0.361 OA
ATOM     52  H   UNL d   1      -4.510   4.882  -2.760  0.00  0.00     0.217 HD
ENDBRANCH  10  51
TORSDOF 13
