REMARK  0 active torsions:
REMARK  status: ('A' for Active; 'I' for Inactive)
ROOT
ATOM      1  O   UNL d   1      -1.058   1.130   0.000  0.00  0.00    -0.275 OA
ATOM      2  O   UNL d   1      -3.320   0.758  -0.001  0.00  0.00    -0.260 OA
ATOM      3  C   UNL d   1       0.447  -0.787  -0.000  0.00  0.00    -0.002 A 
ATOM      4  C   UNL d   1       0.245   0.592   0.000  0.00  0.00     0.089 A 
ATOM      5  C   UNL d   1       1.754  -1.278  -0.000  0.00  0.00     0.014 A 
ATOM      6  C   UNL d   1      -0.708  -1.667   0.000  0.00  0.00     0.020 A 
ATOM      7  C   UNL d   1       1.313   1.487   0.000  0.00  0.00     0.038 A 
ATOM      8  C   UNL d   1       2.835  -0.391  -0.000  0.00  0.00     0.001 A 
ATOM      9  C   UNL d   1       2.615   0.989  -0.000  0.00  0.00     0.003 A 
ATOM     10  C   UNL d   1      -1.942  -1.148   0.000  0.00  0.00     0.083 A 
ATOM     11  C   UNL d   1      -2.182   0.308  -0.000  0.00  0.00     0.288 A 
ENDROOT
TORSDOF 0
