REMARK  4 active torsions:
REMARK  status: ('A' for Active; 'I' for Inactive)
REMARK    1  A    between atoms: O_1  and  C_9 
REMARK    2  A    between atoms: O_2  and  C_12 
REMARK    3  A    between atoms: C_4  and  C_10 
REMARK    4  A    between atoms: C_11  and  C_12 
ROOT
ATOM      1  C   UNL d   1       0.331  -0.264   0.063  0.00  0.00    -0.036 A 
ATOM      2  C   UNL d   1       0.864   1.025   0.214  0.00  0.00     0.014 A 
ATOM      3  C   UNL d   1       1.218  -1.337  -0.110  0.00  0.00     0.014 A 
ATOM      4  C   UNL d   1       2.243   1.246   0.163  0.00  0.00     0.037 A 
ATOM      5  C   UNL d   1       2.599  -1.119  -0.157  0.00  0.00     0.037 A 
ATOM      6  C   UNL d   1       3.100   0.170  -0.025  0.00  0.00     0.065 A 
ENDROOT
BRANCH   1   7
ATOM      7  C   UNL d   1      -1.116  -0.533   0.120  0.00  0.00     0.018 C 
ATOM      8  C   UNL d   1      -2.061   0.392  -0.108  0.00  0.00     0.082 C 
BRANCH   8   9
ATOM      9  C   UNL d   1      -3.486   0.053  -0.034  0.00  0.00     0.165 C 
ATOM     10  O   UNL d   1      -3.984  -1.028   0.215  0.00  0.00    -0.647 OA
BRANCH   9  11
ATOM     11  O   UNL d   1      -4.223   1.148  -0.286  0.00  0.00    -0.773 OA
ATOM     12  H   UNL d   1      -5.148   0.835  -0.219  0.00  0.00     0.167 HD
ENDBRANCH   9  11
ENDBRANCH   8   9
ENDBRANCH   1   7
BRANCH   6  13
ATOM     13  O   UNL d   1       4.450   0.343  -0.080  0.00  0.00    -0.361 OA
ATOM     14  H   UNL d   1       4.643   1.290   0.025  0.00  0.00     0.217 HD
ENDBRANCH   6  13
TORSDOF 4
