REMARK  16 active torsions:
REMARK  status: ('A' for Active; 'I' for Inactive)
REMARK    1  A    between atoms: O_1  and  C_20 
REMARK    2  A    between atoms: C_3  and  C_4 
REMARK    3  A    between atoms: C_3  and  C_5 
REMARK    4  A    between atoms: C_4  and  C_8 
REMARK    5  A    between atoms: C_5  and  C_11 
REMARK    6  A    between atoms: C_6  and  C_7 
REMARK    7  A    between atoms: C_6  and  C_9 
REMARK    8  A    between atoms: C_7  and  C_10 
REMARK    9  A    between atoms: C_8  and  C_12 
REMARK   10  A    between atoms: C_9  and  C_13 
REMARK   11  A    between atoms: C_10  and  C_14 
REMARK   12  A    between atoms: C_11  and  C_15 
REMARK   13  A    between atoms: C_12  and  C_16 
REMARK   14  A    between atoms: C_13  and  C_17 
REMARK   15  A    between atoms: C_14  and  C_18 
REMARK   16  A    between atoms: C_18  and  C_20 
ROOT
ATOM      1  C   UNL d   1      -2.472   2.481  -0.288  0.00  0.00     0.027 C 
ENDROOT
BRANCH   1   2
ATOM      2  C   UNL d   1      -1.252   1.945   0.467  0.00  0.00     0.004 C 
BRANCH   2   3
ATOM      3  C   UNL d   1      -0.005   1.920  -0.420  0.00  0.00     0.000 C 
BRANCH   3   4
ATOM      4  C   UNL d   1       1.202   1.361   0.338  0.00  0.00     0.000 C 
BRANCH   4   5
ATOM      5  C   UNL d   1       2.462   1.350  -0.532  0.00  0.00     0.001 C 
BRANCH   5   6
ATOM      6  C   UNL d   1       3.670   0.814   0.240  0.00  0.00     0.010 C 
BRANCH   6   7
ATOM      7  C   UNL d   1       4.922   0.798  -0.635  0.00  0.00     0.110 C 
BRANCH   7   8
ATOM      8  C   UNL d   1       6.128   0.283   0.103  0.00  0.00     0.139 C 
ATOM      9  O   UNL d   1       6.178  -0.147   1.241  0.00  0.00    -0.650 OA
BRANCH   8  10
ATOM     10  O   UNL d   1       7.237   0.334  -0.663  0.00  0.00    -0.776 OA
ATOM     11  H   UNL d   1       7.945  -0.023  -0.086  0.00  0.00     0.167 HD
ENDBRANCH   8  10
ENDBRANCH   7   8
ENDBRANCH   6   7
ENDBRANCH   5   6
ENDBRANCH   4   5
ENDBRANCH   3   4
ENDBRANCH   2   3
ENDBRANCH   1   2
BRANCH   1  12
ATOM     12  C   UNL d   1      -3.706   2.438   0.570  0.00  0.00    -0.031 C 
ATOM     13  C   UNL d   1      -4.828   1.725   0.369  0.00  0.00    -0.031 C 
BRANCH  13  14
ATOM     14  C   UNL d   1      -5.134   0.785  -0.763  0.00  0.00     0.027 C 
BRANCH  14  15
ATOM     15  C   UNL d   1      -5.497  -0.629  -0.291  0.00  0.00     0.004 C 
BRANCH  15  16
ATOM     16  C   UNL d   1      -4.400  -1.373   0.483  0.00  0.00     0.000 C 
BRANCH  16  17
ATOM     17  C   UNL d   1      -3.118  -1.595  -0.326  0.00  0.00     0.000 C 
BRANCH  17  18
ATOM     18  C   UNL d   1      -2.090  -2.415   0.460  0.00  0.00     0.000 C 
BRANCH  18  19
ATOM     19  C   UNL d   1      -0.827  -2.678  -0.367  0.00  0.00    -0.000 C 
BRANCH  19  20
ATOM     20  C   UNL d   1       0.180  -3.539   0.399  0.00  0.00    -0.005 C 
ATOM     21  C   UNL d   1       1.415  -3.843  -0.437  0.00  0.00     0.005 C 
ENDBRANCH  19  20
ENDBRANCH  18  19
ENDBRANCH  17  18
ENDBRANCH  16  17
ENDBRANCH  15  16
ENDBRANCH  14  15
ENDBRANCH  13  14
ENDBRANCH   1  12
TORSDOF 16
