REMARK  8 active torsions:
REMARK  status: ('A' for Active; 'I' for Inactive)
REMARK    1  A    between atoms: O_1  and  C_6 
REMARK    2  A    between atoms: O_2  and  C_7 
REMARK    3  A    between atoms: O_3  and  C_8 
REMARK    4  A    between atoms: O_4  and  C_9 
REMARK    5  A    between atoms: C_6  and  C_7 
REMARK    6  A    between atoms: C_6  and  C_8 
REMARK    7  A    between atoms: C_7  and  C_9 
REMARK    8  A    between atoms: C_8  and  C_10 
ROOT
ATOM      1  C   UNL d   1       0.049  -0.343  -0.418  0.00  0.00     0.184 C 
ENDROOT
BRANCH   1   2
ATOM      2  O   UNL d   1       0.272  -1.606   0.218  0.00  0.00    -0.390 OA
ATOM      3  H   UNL d   1       0.498  -1.410   1.149  0.00  0.00     0.210 HD
ENDBRANCH   1   2
BRANCH   1   4
ATOM      4  C   UNL d   1      -1.298   0.242   0.056  0.00  0.00     0.173 C 
BRANCH   4   5
ATOM      5  O   UNL d   1      -1.578   1.476  -0.628  0.00  0.00    -0.391 OA
ATOM      6  H   UNL d   1      -1.730   1.282  -1.567  0.00  0.00     0.210 HD
ENDBRANCH   4   5
BRANCH   4   7
ATOM      7  C   UNL d   1      -2.461  -0.730  -0.185  0.00  0.00     0.198 C 
BRANCH   7   8
ATOM      8  O   UNL d   1      -3.688  -0.161   0.279  0.00  0.00    -0.398 OA
ATOM      9  H   UNL d   1      -3.672   0.781   0.029  0.00  0.00     0.209 HD
ENDBRANCH   7   8
ENDBRANCH   4   7
ENDBRANCH   1   4
BRANCH   1  10
ATOM     10  C   UNL d   1       1.231   0.597  -0.121  0.00  0.00     0.210 C 
BRANCH  10  11
ATOM     11  O   UNL d   1       1.308   0.828   1.291  0.00  0.00    -0.386 OA
ATOM     12  H   UNL d   1       2.140   1.319   1.437  0.00  0.00     0.210 HD
ENDBRANCH  10  11
BRANCH  10  13
ATOM     13  C   UNL d   1       2.531  -0.005  -0.642  0.00  0.00     0.265 C 
ATOM     14  O   UNL d   1       3.548  -0.095   0.035  0.00  0.00    -0.304 OA
ENDBRANCH  10  13
ENDBRANCH   1  10
TORSDOF 8
