REMARK  1 active torsions:
REMARK  status: ('A' for Active; 'I' for Inactive)
REMARK    1  A    between atoms: C_2  and  C_5 
ROOT
ATOM      1  C   UNL d   1       0.283  -0.015  -0.001  0.00  0.00     0.009 A 
ATOM      2  C   UNL d   1      -0.392   1.211  -0.000  0.00  0.00     0.015 A 
ATOM      3  C   UNL d   1      -0.456  -1.206  -0.000  0.00  0.00     0.015 A 
ATOM      4  C   UNL d   1      -1.790   1.244   0.000  0.00  0.00     0.001 A 
ATOM      5  C   UNL d   1      -1.852  -1.170   0.000  0.00  0.00     0.001 A 
ATOM      6  C   UNL d   1      -2.517   0.055   0.001  0.00  0.00     0.000 A 
ENDROOT
BRANCH   1   7
ATOM      7  C   UNL d   1       1.774  -0.098  -0.001  0.00  0.00     0.155 C 
ATOM      8  O   UNL d   1       2.332  -1.194  -0.003  0.00  0.00    -0.293 OA
ATOM      9  C   UNL d   1       2.570   1.182  -0.000  0.00  0.00     0.096 C 
ENDBRANCH   1   7
TORSDOF 1
