@<TRIPOS>MOLECULE
77232202
 53 54 0 0 0
SMALL
GASTEIGER

@<TRIPOS>ATOM
      1 S           0.7688    1.3380   -1.2964 S.3     1  UNL1       -0.1225
      2 O          -4.8271   -0.6886    1.7657 O.3     1  UNL1       -0.3913
      3 O          -4.4432   -1.2102   -2.3805 O.2     1  UNL1       -0.3006
      4 O           5.6717    0.2910   -0.3699 O.2     1  UNL1       -0.2739
      5 O          -2.8734    3.2836    0.7411 O.3     1  UNL1       -0.4762
      6 OXT        -0.8607    3.7162   -0.2549 O.2     1  UNL1       -0.2437
      7 N          -2.6767    0.6974    0.4270 N.pl3   1  UNL1       -0.3335
      8 N           3.9763    1.5440    1.0555 N.3     1  UNL1       -0.3046
      9 N           4.8752   -1.8619   -0.0055 N.am    1  UNL1       -0.3063
     10 C          -2.3495   -0.7162    0.3374 C.3     1  UNL1        0.0395
     11 C          -1.0798   -0.7162   -0.5853 C.3     1  UNL1        0.0083
     12 C          -3.5554   -1.5121   -0.1301 C.3     1  UNL1        0.0589
     13 C           1.8343    1.2465    0.1661 C.3     1  UNL1        0.0240
     14 C          -0.7061    0.7627   -0.6338 C.2     1  UNL1        0.0182
     15 C           2.3844   -0.1529    0.4235 C.3     1  UNL1       -0.0156
     16 C           3.7724    0.0886    1.0141 C.3     1  UNL1        0.0860
     17 C           3.0823    2.0987    0.0279 C.3     1  UNL1        0.0088
     18 CA         -1.6740    1.4912   -0.0602 C.2     1  UNL1        0.1222
     19 C          -1.3007   -1.2958   -1.9826 C.3     1  UNL1       -0.0561
     20 C          -4.5617   -1.8550    0.9884 C.3     1  UNL1        0.0634
     21 C          -4.3009   -0.7805   -1.2403 C.2     1  UNL1        0.1276
     22 C           4.8580   -0.4755    0.1522 C.2     1  UNL1        0.2322
     23 C          -4.0542   -2.9560    1.9127 C.3     1  UNL1       -0.0382
     24 C          -1.7270    2.9377    0.1136 C.2     1  UNL1        0.3515
     25 C           3.8910   -2.7330    0.6319 C.3     1  UNL1        0.0029
     26 C           5.8762   -2.5417   -0.8176 C.3     1  UNL1        0.0029
     27 H          -2.0254   -1.0565    1.3286 H       1  UNL1        0.0511
     28 H          -0.2937   -1.2966   -0.0879 H       1  UNL1        0.0370
     29 H           1.2734    1.5857    1.0474 H       1  UNL1        0.0428
     30 H          -3.2326   -2.4728   -0.5472 H       1  UNL1        0.0418
     31 H           2.4231   -0.7350   -0.5043 H       1  UNL1        0.0296
     32 H           1.7384   -0.6797    1.1348 H       1  UNL1        0.0296
     33 H           3.8706   -0.2984    2.0329 H       1  UNL1        0.0557
     34 H          -3.4030    1.0695    1.0253 H       1  UNL1        0.1466
     35 H           3.5470    2.0043   -0.9613 H       1  UNL1        0.0435
     36 H           2.8836    3.1579    0.2191 H       1  UNL1        0.0435
     37 H          -1.9763   -0.6843   -2.5865 H       1  UNL1        0.0236
     38 H          -1.6607   -2.3273   -1.9537 H       1  UNL1        0.0236
     39 H          -0.3483   -1.3252   -2.5262 H       1  UNL1        0.0236
     40 H          -5.5122   -2.1764    0.5454 H       1  UNL1        0.0598
     41 H           4.9447    1.8120    0.8933 H       1  UNL1        0.1227
     42 H          -4.7601    0.1842   -0.9621 H       1  UNL1        0.1031
     43 H          -3.8140   -3.8661    1.3549 H       1  UNL1        0.0255
     44 H          -4.8171   -3.2027    2.6596 H       1  UNL1        0.0255
     45 H          -3.1690   -2.6393    2.4730 H       1  UNL1        0.0255
     46 H          -5.4799   -0.9302    2.4447 H       1  UNL1        0.2098
     47 H           3.1123   -2.9713   -0.0982 H       1  UNL1        0.0428
     48 H           3.4443   -2.3078    1.5296 H       1  UNL1        0.0428
     49 H           4.3843   -3.6641    0.9308 H       1  UNL1        0.0428
     50 H           6.4640   -3.2037   -0.1753 H       1  UNL1        0.0428
     51 H           6.5462   -1.8234   -1.2968 H       1  UNL1        0.0428
     52 H           5.3676   -3.1277   -1.5884 H       1  UNL1        0.0428
     53 H          -2.9417    4.2530    0.8748 H       1  UNL1        0.2954
@<TRIPOS>BOND
     1     1    13    1
     2     1    14    1
     3     2    20    1
     4     2    46    1
     5     3    21    2
     6     4    22    2
     7     5    24    1
     8     5    53    1
     9     6    24    2
    10     7    10    1
    11     7    18    1
    12     7    34    1
    13     8    16    1
    14     8    17    1
    15     8    41    1
    16     9    22   am
    17     9    25    1
    18     9    26    1
    19    10    11    1
    20    10    12    1
    21    10    27    1
    22    11    14    1
    23    11    19    1
    24    11    28    1
    25    12    20    1
    26    12    21    1
    27    12    30    1
    28    13    15    1
    29    13    17    1
    30    13    29    1
    31    14    18    2
    32    15    16    1
    33    15    31    1
    34    15    32    1
    35    16    22    1
    36    16    33    1
    37    17    35    1
    38    17    36    1
    39    18    24    1
    40    19    37    1
    41    19    38    1
    42    19    39    1
    43    20    23    1
    44    20    40    1
    45    21    42    1
    46    23    43    1
    47    23    44    1
    48    23    45    1
    49    25    47    1
    50    25    48    1
    51    25    49    1
    52    26    50    1
    53    26    51    1
    54    26    52    1
