REMARK  2 active torsions:
REMARK  status: ('A' for Active; 'I' for Inactive)
REMARK    1  A    between atoms: O_1  and  C_3 
REMARK    2  A    between atoms: C_2  and  C_3 
ROOT
ATOM      1  C   UNL d   1      -0.498  -0.018   0.368  0.00  0.00     0.023 C 
ATOM      2  C   UNL d   1       0.187  -1.239  -0.256  0.00  0.00     0.012 C 
ATOM      3  C   UNL d   1       0.185   1.274  -0.106  0.00  0.00     0.035 C 
ATOM      4  C   UNL d   1       1.672  -1.292   0.119  0.00  0.00     0.034 C 
ATOM      5  C   UNL d   1       2.367   0.044   0.035  0.00  0.00    -0.087 C 
ATOM      6  C   UNL d   1       1.683   1.195  -0.081  0.00  0.00    -0.024 C 
ATOM      7  C   UNL d   1       3.866   0.013   0.091  0.00  0.00     0.043 C 
ENDROOT
BRANCH   1   8
ATOM      8  C   UNL d   1      -1.989   0.005   0.039  0.00  0.00     0.054 C 
ATOM      9  C   UNL d   1      -2.681   1.184   0.723  0.00  0.00     0.045 C 
ATOM     10  C   UNL d   1      -2.650  -1.312   0.443  0.00  0.00     0.045 C 
BRANCH   8  11
ATOM     11  O   UNL d   1      -2.142   0.146  -1.374  0.00  0.00    -0.390 OA
ATOM     12  H   UNL d   1      -3.094   0.165  -1.573  0.00  0.00     0.210 HD
ENDBRANCH   8  11
ENDBRANCH   1   8
TORSDOF 2
