REMARK  0 active torsions:
REMARK  status: ('A' for Active; 'I' for Inactive)
ROOT
ATOM      1  O   UNL d   1       0.315   2.920   0.159  0.00  0.00    -0.370 OA
ATOM      2  C   UNL d   1      -0.603   1.856  -0.127  0.00  0.00     0.084 A 
ATOM      3  C   UNL d   1       0.752   1.596   0.506  0.00  0.00     0.157 A 
ATOM      4  C   UNL d   1       1.929   1.123  -0.307  0.00  0.00     0.047 C 
ATOM      5  C   UNL d   1      -1.860   1.906   0.697  0.00  0.00     0.044 C 
ATOM      6  C   UNL d   1       2.323  -0.369  -0.073  0.00  0.00    -0.028 C 
ATOM      7  C   UNL d   1      -0.797   1.696  -1.599  0.00  0.00     0.049 C 
ATOM      8  C   UNL d   1      -2.777   0.693   0.468  0.00  0.00     0.030 C 
ATOM      9  C   UNL d   1       3.368  -0.769  -1.134  0.00  0.00     0.019 C 
ATOM     10  C   UNL d   1       2.976  -0.528   1.315  0.00  0.00     0.019 C 
ATOM     11  C   UNL d   1       1.091  -1.234  -0.281  0.00  0.00    -0.022 C 
ATOM     12  C   UNL d   1      -2.062  -0.587   0.790  0.00  0.00    -0.024 C 
ATOM     13  C   UNL d   1       0.536  -2.104   0.582  0.00  0.00    -0.026 C 
ATOM     14  C   UNL d   1      -1.863  -1.651  -0.015  0.00  0.00    -0.084 C 
ATOM     15  C   UNL d   1      -0.839  -2.701   0.385  0.00  0.00     0.060 C 
ATOM     16  C   UNL d   1      -2.490  -1.845  -1.366  0.00  0.00     0.043 C 
ENDROOT
TORSDOF 0
