REMARK  2 active torsions:
REMARK  status: ('A' for Active; 'I' for Inactive)
REMARK    1  A    between atoms: O_1  and  C_9 
REMARK    2  A    between atoms: C_2  and  C_3 
ROOT
ATOM      1  C   UNL d   1       0.892  -0.323   0.000  0.00  0.00    -0.052 A 
ATOM      2  C   UNL d   1       0.177   0.875   0.000  0.00  0.00     0.044 A 
ATOM      3  C   UNL d   1       0.212  -1.541   0.000  0.00  0.00     0.008 A 
ATOM      4  C   UNL d   1      -1.897  -0.364  -0.000  0.00  0.00    -0.029 A 
ATOM      5  C   UNL d   1      -1.218   0.854  -0.000  0.00  0.00     0.072 A 
ATOM      6  C   UNL d   1      -1.183  -1.562  -0.000  0.00  0.00     0.010 A 
ATOM      7  C   UNL d   1      -3.390  -0.405   0.001  0.00  0.00     0.051 C 
ENDROOT
BRANCH   1   8
ATOM      8  C   UNL d   1       2.383  -0.302   0.000  0.00  0.00     0.010 C 
ATOM      9  C   UNL d   1       2.963   0.367   1.260  0.00  0.00     0.015 C 
ATOM     10  C   UNL d   1       2.963   0.367  -1.260  0.00  0.00     0.015 C 
ENDBRANCH   1   8
BRANCH   5  11
ATOM     11  O   UNL d   1      -1.901   2.033   0.000  0.00  0.00    -0.360 OA
ATOM     12  H   UNL d   1      -2.859   1.881  -0.000  0.00  0.00     0.217 HD
ENDBRANCH   5  11
TORSDOF 2
