REMARK  2 active torsions:
REMARK  status: ('A' for Active; 'I' for Inactive)
REMARK    1  A    between atoms: C_3  and  C_7 
REMARK    2  A    between atoms: C_7  and  C_11 
ROOT
ATOM      1  O   UNL d   1       2.012  -1.633  -0.169  0.00  0.00    -0.323 OA
ATOM      2  O   UNL d   1       2.965   0.504   0.407  0.00  0.00    -0.323 OA
ATOM      3  C   UNL d   1      -1.052   0.368  -0.428  0.00  0.00    -0.052 A 
ATOM      4  C   UNL d   1       1.087  -0.636  -0.177  0.00  0.00     0.105 A 
ATOM      5  C   UNL d   1       1.631   0.585   0.151  0.00  0.00     0.105 A 
ATOM      6  C   UNL d   1      -0.254  -0.777  -0.473  0.00  0.00     0.047 A 
ATOM      7  C   UNL d   1      -0.496   1.615  -0.092  0.00  0.00     0.010 A 
ATOM      8  C   UNL d   1       0.864   1.731   0.203  0.00  0.00     0.040 A 
ATOM      9  C   UNL d   1       3.200  -0.904   0.202  0.00  0.00     0.352 A 
ENDROOT
BRANCH   3  10
ATOM     10  C   UNL d   1      -2.508   0.269  -0.739  0.00  0.00     0.065 C 
BRANCH  10  11
ATOM     11  C   UNL d   1      -3.352  -0.011   0.477  0.00  0.00    -0.032 C 
ATOM     12  C   UNL d   1      -4.097  -1.111   0.638  0.00  0.00     0.007 C 
ENDBRANCH  10  11
ENDBRANCH   3  10
TORSDOF 2
