REMARK  2 active torsions:
REMARK  status: ('A' for Active; 'I' for Inactive)
REMARK    1  A    between atoms: O_1  and  C_2 
REMARK    2  A    between atoms: C_4  and  C_9 
ROOT
ATOM      1  C   UNL d   1       0.963  -0.842   0.319  0.00  0.00     0.069 C 
ATOM      2  C   UNL d   1      -0.091   0.276   0.587  0.00  0.00     0.047 C 
ATOM      3  C   UNL d   1      -1.324   0.182  -0.355  0.00  0.00    -0.001 C 
ATOM      4  C   UNL d   1       0.295  -2.244   0.269  0.00  0.00     0.017 C 
ATOM      5  C   UNL d   1      -1.921  -1.232  -0.358  0.00  0.00     0.006 C 
ATOM      6  C   UNL d   1      -0.884  -2.291  -0.705  0.00  0.00     0.007 C 
ATOM      7  C   UNL d   1       1.783  -0.501  -0.942  0.00  0.00     0.043 C 
ATOM      8  C   UNL d   1       0.533   1.654   0.494  0.00  0.00    -0.016 C 
ATOM      9  C   UNL d   1       2.493   0.855  -0.828  0.00  0.00     0.036 C 
ATOM     10  C   UNL d   1       1.272  -3.384  -0.043  0.00  0.00     0.013 C 
ATOM     11  C   UNL d   1       1.690   1.922  -0.134  0.00  0.00    -0.087 C 
ATOM     12  C   UNL d   1       2.267   3.307  -0.172  0.00  0.00     0.043 C 
ENDROOT
BRANCH   3  13
ATOM     13  C   UNL d   1      -2.429   1.182   0.019  0.00  0.00    -0.018 C 
ATOM     14  C   UNL d   1      -3.551   1.138  -1.010  0.00  0.00     0.010 C 
ATOM     15  C   UNL d   1      -2.959   0.884   1.416  0.00  0.00     0.010 C 
ENDBRANCH   3  13
BRANCH   1  16
ATOM     16  O   UNL d   1       1.863  -0.907   1.442  0.00  0.00    -0.389 OA
ATOM     17  H   UNL d   1       2.664  -1.385   1.169  0.00  0.00     0.210 HD
ENDBRANCH   1  16
TORSDOF 2
