REMARK  0 active torsions:
REMARK  status: ('A' for Active; 'I' for Inactive)
ROOT
ATOM      1  C   UNL d   1       0.700  -0.041  -0.544  0.00  0.00     0.004 A 
ATOM      2  C   UNL d   1       2.077   0.519  -0.307  0.00  0.00    -0.039 A 
ATOM      3  C   UNL d   1       0.914   1.455  -0.513  0.00  0.00    -0.001 A 
ATOM      4  C   UNL d   1      -0.108  -0.651   0.574  0.00  0.00     0.002 C 
ATOM      5  C   UNL d   1      -1.607  -0.295   0.431  0.00  0.00     0.018 C 
ATOM      6  C   UNL d   1       0.389   2.259   0.641  0.00  0.00     0.010 C 
ATOM      7  C   UNL d   1      -0.126  -2.186   0.594  0.00  0.00    -0.013 C 
ATOM      8  C   UNL d   1       2.617   0.405   1.080  0.00  0.00     0.015 C 
ATOM      9  C   UNL d   1       3.144   0.442  -1.347  0.00  0.00     0.015 C 
ATOM     10  C   UNL d   1      -2.127  -1.374  -0.547  0.00  0.00     0.010 C 
ATOM     11  C   UNL d   1      -1.195  -2.581  -0.422  0.00  0.00     0.005 C 
ATOM     12  C   UNL d   1      -1.143   2.249   0.783  0.00  0.00     0.034 C 
ATOM     13  C   UNL d   1      -1.911   1.154   0.063  0.00  0.00    -0.085 C 
ATOM     14  C   UNL d   1       1.216  -2.861   0.355  0.00  0.00     0.010 C 
ATOM     15  C   UNL d   1      -2.842   1.505  -0.841  0.00  0.00     0.014 C 
ENDROOT
TORSDOF 0
