REMARK  9 active torsions:
REMARK  status: ('A' for Active; 'I' for Inactive)
REMARK    1  A    between atoms: O_2  and  C_15 
REMARK    2  A    between atoms: O_2  and  C_17 
REMARK    3  A    between atoms: O_3  and  C_11 
REMARK    4  A    between atoms: O_4  and  C_12 
REMARK    5  A    between atoms: O_5  and  C_13 
REMARK    6  A    between atoms: O_8  and  C_23 
REMARK    7  A    between atoms: O_9  and  C_28 
REMARK    8  A    between atoms: O_10  and  C_31 
REMARK    9  A    between atoms: C_18  and  C_22 
ROOT
ATOM      1  O   UNL d   1      -2.105  -1.540   0.043  0.00  0.00    -0.306 OA
ATOM      2  O   UNL d   1      -1.058   2.347  -0.594  0.00  0.00    -0.284 OA
ATOM      3  C   UNL d   1      -0.370   0.091  -0.378  0.00  0.00     0.157 A 
ATOM      4  C   UNL d   1      -0.784  -1.170  -0.156  0.00  0.00     0.123 A 
ATOM      5  C   UNL d   1      -1.375   1.181  -0.398  0.00  0.00     0.223 A 
ATOM      6  C   UNL d   1      -2.773   0.784  -0.173  0.00  0.00     0.084 A 
ATOM      7  C   UNL d   1      -3.066  -0.562   0.036  0.00  0.00     0.096 A 
ATOM      8  C   UNL d   1      -3.795   1.737  -0.170  0.00  0.00     0.085 A 
ATOM      9  C   UNL d   1      -4.384  -0.964   0.250  0.00  0.00     0.075 A 
ATOM     10  C   UNL d   1      -5.113   1.332   0.044  0.00  0.00     0.074 A 
ATOM     11  C   UNL d   1      -5.407  -0.016   0.254  0.00  0.00     0.071 A 
ENDROOT
BRANCH   3  12
ATOM     12  O   UNL d   1       0.949   0.421  -0.605  0.00  0.00    -0.311 OA
BRANCH  12  13
ATOM     13  C   UNL d   1       1.635   0.716   0.607  0.00  0.00     0.298 C 
ATOM     14  O   UNL d   1       1.499   2.088   0.991  0.00  0.00    -0.351 OA
ATOM     15  C   UNL d   1       2.092   3.015   0.076  0.00  0.00     0.152 C 
ATOM     16  C   UNL d   1       3.596   2.748  -0.082  0.00  0.00     0.178 C 
ATOM     17  C   UNL d   1       1.814   4.415   0.617  0.00  0.00     0.042 C 
ATOM     18  C   UNL d   1       3.831   1.292  -0.482  0.00  0.00     0.183 C 
ATOM     19  C   UNL d   1       3.108   0.338   0.471  0.00  0.00     0.205 C 
BRANCH  16  20
ATOM     20  O   UNL d   1       4.141   3.582  -1.102  0.00  0.00    -0.390 OA
ATOM     21  H   UNL d   1       3.651   3.412  -1.924  0.00  0.00     0.210 HD
ENDBRANCH  16  20
BRANCH  18  22
ATOM     22  O   UNL d   1       5.231   1.022  -0.470  0.00  0.00    -0.390 OA
ATOM     23  H   UNL d   1       5.543   1.117   0.446  0.00  0.00     0.210 HD
ENDBRANCH  18  22
BRANCH  19  24
ATOM     24  O   UNL d   1       3.698   0.409   1.770  0.00  0.00    -0.388 OA
ATOM     25  H   UNL d   1       3.259  -0.255   2.328  0.00  0.00     0.210 HD
ENDBRANCH  19  24
ENDBRANCH  12  13
ENDBRANCH   3  12
BRANCH   4  26
ATOM     26  C   UNL d   1       0.144  -2.314  -0.127  0.00  0.00     0.001 A 
ATOM     27  C   UNL d   1       0.740  -2.699   1.075  0.00  0.00     0.017 A 
ATOM     28  C   UNL d   1       1.619  -3.783   1.102  0.00  0.00     0.037 A 
ATOM     29  C   UNL d   1       1.901  -4.482  -0.072  0.00  0.00     0.065 A 
ATOM     30  C   UNL d   1       1.305  -4.097  -1.273  0.00  0.00     0.037 A 
ATOM     31  C   UNL d   1       0.427  -3.013  -1.300  0.00  0.00     0.017 A 
BRANCH  29  32
ATOM     32  O   UNL d   1       2.757  -5.539  -0.045  0.00  0.00    -0.361 OA
ATOM     33  H   UNL d   1       3.075  -5.663   0.866  0.00  0.00     0.217 HD
ENDBRANCH  29  32
ENDBRANCH   4  26
BRANCH   8  34
ATOM     34  O   UNL d   1      -3.562   3.064  -0.370  0.00  0.00    -0.360 OA
ATOM     35  H   UNL d   1      -4.403   3.551  -0.329  0.00  0.00     0.217 HD
ENDBRANCH   8  34
BRANCH  11  36
ATOM     36  O   UNL d   1      -6.695  -0.406   0.463  0.00  0.00    -0.361 OA
ATOM     37  H   UNL d   1      -7.271   0.377   0.433  0.00  0.00     0.217 HD
ENDBRANCH  11  36
TORSDOF 9
