REMARK  16 active torsions:
REMARK  status: ('A' for Active; 'I' for Inactive)
REMARK    1  A    between atoms: O_1  and  C_14 
REMARK    2  A    between atoms: O_2  and  C_15 
REMARK    3  A    between atoms: O_3  and  C_16 
REMARK    4  A    between atoms: O_4  and  C_17 
REMARK    5  A    between atoms: O_5  and  C_24 
REMARK    6  A    between atoms: O_6  and  C_25 
REMARK    7  A    between atoms: C_9  and  C_10 
REMARK    8  A    between atoms: C_9  and  C_12 
REMARK    9  A    between atoms: C_9  and  C_13 
REMARK   10  A    between atoms: C_10  and  C_11 
REMARK   11  A    between atoms: C_20  and  C_26 
REMARK   12  A    between atoms: C_21  and  C_27 
REMARK   13  A    between atoms: C_22  and  C_28 
REMARK   14  A    between atoms: C_23  and  C_29 
REMARK   15  A    between atoms: C_26  and  C_30 
REMARK   16  A    between atoms: C_27  and  C_31 
ROOT
ATOM      1  C   UNL d   1      -0.439  -1.195   1.514  0.00  0.00     0.063 C 
ENDROOT
BRANCH   1   2
ATOM      2  C   UNL d   1      -1.009  -2.577   1.933  0.00  0.00     0.018 C 
BRANCH   2   3
ATOM      3  C   UNL d   1      -2.385  -2.537   2.636  0.00  0.00    -0.022 C 
ATOM      4  C   UNL d   1      -2.283  -1.703   3.917  0.00  0.00     0.009 C 
ATOM      5  C   UNL d   1      -2.916  -3.931   2.975  0.00  0.00     0.009 C 
ENDBRANCH   2   3
ENDBRANCH   1   2
BRANCH   1   6
ATOM      6  C   UNL d   1      -1.448  -0.341   0.749  0.00  0.00     0.019 A 
ATOM      7  C   UNL d   1      -1.467   1.042   0.927  0.00  0.00     0.084 A 
ATOM      8  C   UNL d   1      -2.388   1.823   0.228  0.00  0.00     0.013 A 
ATOM      9  C   UNL d   1      -3.291   1.220  -0.648  0.00  0.00     0.094 A 
ATOM     10  C   UNL d   1      -3.272  -0.164  -0.826  0.00  0.00     0.077 A 
ATOM     11  C   UNL d   1      -2.350  -0.944  -0.127  0.00  0.00     0.092 A 
BRANCH   7  12
ATOM     12  O   UNL d   1      -0.585   1.632   1.784  0.00  0.00    -0.359 OA
ATOM     13  H   UNL d   1       0.235   1.120   1.837  0.00  0.00     0.217 HD
ENDBRANCH   7  12
BRANCH   8  14
ATOM     14  C   UNL d   1      -2.408   3.306   0.419  0.00  0.00     0.072 C 
BRANCH  14  15
ATOM     15  C   UNL d   1      -1.505   4.032  -0.545  0.00  0.00    -0.020 C 
ATOM     16  C   UNL d   1      -0.439   4.804  -0.262  0.00  0.00    -0.091 C 
ATOM     17  C   UNL d   1       0.421   5.502  -1.278  0.00  0.00     0.042 C 
ATOM     18  C   UNL d   1      -0.025   5.038   1.167  0.00  0.00     0.042 C 
ENDBRANCH  14  15
ENDBRANCH   8  14
BRANCH   9  19
ATOM     19  O   UNL d   1      -4.190   1.986  -1.331  0.00  0.00    -0.354 OA
ATOM     20  C   UNL d   1      -5.449   2.216  -0.705  0.00  0.00     0.210 C 
ENDBRANCH   9  19
BRANCH  10  21
ATOM     21  C   UNL d   1      -4.215  -0.794  -1.743  0.00  0.00     0.161 C 
ATOM     22  O   UNL d   1      -5.030  -1.647  -1.346  0.00  0.00    -0.293 OA
ATOM     23  C   UNL d   1      -4.216  -0.415  -3.217  0.00  0.00     0.097 C 
ENDBRANCH  10  21
BRANCH  11  24
ATOM     24  O   UNL d   1      -2.329  -2.298  -0.299  0.00  0.00    -0.359 OA
ATOM     25  H   UNL d   1      -3.002  -2.576  -0.940  0.00  0.00     0.217 HD
ENDBRANCH  11  24
ENDBRANCH   1   6
BRANCH   1  26
ATOM     26  C   UNL d   1       0.887  -1.278   0.769  0.00  0.00     0.019 A 
ATOM     27  C   UNL d   1       2.038  -0.722   1.329  0.00  0.00     0.084 A 
ATOM     28  C   UNL d   1       3.252  -0.799   0.648  0.00  0.00     0.013 A 
ATOM     29  C   UNL d   1       3.317  -1.431  -0.594  0.00  0.00     0.091 A 
ATOM     30  C   UNL d   1       2.167  -1.988  -1.154  0.00  0.00     0.077 A 
ATOM     31  C   UNL d   1       0.952  -1.911  -0.472  0.00  0.00     0.092 A 
BRANCH  27  32
ATOM     32  O   UNL d   1       1.974  -0.103   2.543  0.00  0.00    -0.359 OA
ATOM     33  H   UNL d   1       1.516  -0.694   3.164  0.00  0.00     0.217 HD
ENDBRANCH  27  32
BRANCH  28  34
ATOM     34  C   UNL d   1       4.485  -0.202   1.248  0.00  0.00     0.072 C 
BRANCH  34  35
ATOM     35  C   UNL d   1       4.689   1.239   0.853  0.00  0.00    -0.020 C 
ATOM     36  C   UNL d   1       5.718   1.774   0.170  0.00  0.00    -0.091 C 
ATOM     37  C   UNL d   1       5.858   3.226  -0.192  0.00  0.00     0.042 C 
ATOM     38  C   UNL d   1       6.859   0.907  -0.292  0.00  0.00     0.042 C 
ENDBRANCH  34  35
ENDBRANCH  28  34
BRANCH  29  39
ATOM     39  O   UNL d   1       4.507  -1.506  -1.257  0.00  0.00    -0.359 OA
ATOM     40  H   UNL d   1       4.405  -1.976  -2.100  0.00  0.00     0.217 HD
ENDBRANCH  29  39
BRANCH  30  41
ATOM     41  C   UNL d   1       2.235  -2.650  -2.452  0.00  0.00     0.161 C 
ATOM     42  O   UNL d   1       2.601  -2.038  -3.472  0.00  0.00    -0.293 OA
ATOM     43  C   UNL d   1       1.853  -4.118  -2.581  0.00  0.00     0.097 C 
ENDBRANCH  30  41
BRANCH  31  44
ATOM     44  O   UNL d   1      -0.175  -2.454  -1.017  0.00  0.00    -0.359 OA
ATOM     45  H   UNL d   1      -0.078  -2.533  -1.980  0.00  0.00     0.217 HD
ENDBRANCH  31  44
ENDBRANCH   1  26
TORSDOF 16
