REMARK  13 active torsions:
REMARK  status: ('A' for Active; 'I' for Inactive)
REMARK    1  A    between atoms: O_3  and  C_14 
REMARK    2  A    between atoms: O_4  and  C_20 
REMARK    3  A    between atoms: O_5  and  C_24 
REMARK    4  A    between atoms: O_6  and  C_26 
REMARK    5  A    between atoms: O_7  and  C_27 
REMARK    6  A    between atoms: O_8  and  C_32 
REMARK    7  A    between atoms: O_9  and  C_39 
REMARK    8  A    between atoms: O_10  and  C_40 
REMARK    9  A    between atoms: O_11  and  C_42 
REMARK   10  A    between atoms: O_12  and  C_41 
REMARK   11  A    between atoms: C_13  and  C_15 
REMARK   12  A    between atoms: C_16  and  C_25 
REMARK   13  A    between atoms: C_21  and  C_29 
ROOT
ATOM      1  O   UNL d   1      -1.529   0.716   0.618  0.00  0.00    -0.337 OA
ATOM      2  C   UNL d   1       0.690   1.471   0.779  0.00  0.00     0.020 A 
ATOM      3  C   UNL d   1      -0.608   1.471   1.298  0.00  0.00     0.088 A 
ATOM      4  C   UNL d   1      -0.919   2.240   2.426  0.00  0.00     0.012 A 
ATOM      5  C   UNL d   1      -3.322   1.700   1.992  0.00  0.00     0.156 C 
ATOM      6  C   UNL d   1      -2.738   0.439   1.343  0.00  0.00     0.191 C 
ATOM      7  C   UNL d   1      -2.315   2.271   2.989  0.00  0.00     0.079 C 
ATOM      8  C   UNL d   1       1.691   2.215   1.403  0.00  0.00     0.078 A 
ATOM      9  C   UNL d   1       0.097   2.975   3.051  0.00  0.00     0.077 A 
ATOM     10  C   UNL d   1       1.396   2.963   2.540  0.00  0.00     0.074 A 
ENDROOT
BRANCH   2  11
ATOM     11  C   UNL d   1       1.024   0.656  -0.461  0.00  0.00     0.094 C 
ATOM     12  C   UNL d   1       1.394  -0.793  -0.085  0.00  0.00     0.165 C 
ATOM     13  C   UNL d   1       2.907  -0.939   0.136  0.00  0.00     0.191 C 
ATOM     14  O   UNL d   1       3.657  -0.567  -1.029  0.00  0.00    -0.338 OA
ATOM     15  C   UNL d   1       3.314   0.643  -1.574  0.00  0.00     0.082 A 
ATOM     16  C   UNL d   1       2.085   1.278  -1.349  0.00  0.00     0.020 A 
ATOM     17  C   UNL d   1       4.259   1.212  -2.433  0.00  0.00     0.074 A 
ATOM     18  C   UNL d   1       1.830   2.501  -1.990  0.00  0.00     0.078 A 
ATOM     19  C   UNL d   1       2.781   3.075  -2.835  0.00  0.00     0.073 A 
ATOM     20  C   UNL d   1       3.994   2.430  -3.057  0.00  0.00     0.071 A 
BRANCH  12  21
ATOM     21  O   UNL d   1       0.960  -1.661  -1.139  0.00  0.00    -0.392 OA
ATOM     22  H   UNL d   1       1.465  -1.438  -1.940  0.00  0.00     0.210 HD
ENDBRANCH  12  21
BRANCH  13  23
ATOM     23  C   UNL d   1       3.281  -2.350   0.554  0.00  0.00    -0.026 A 
ATOM     24  C   UNL d   1       3.299  -2.692   1.905  0.00  0.00     0.012 A 
ATOM     25  C   UNL d   1       3.643  -3.988   2.290  0.00  0.00     0.037 A 
ATOM     26  C   UNL d   1       3.967  -4.940   1.323  0.00  0.00     0.065 A 
ATOM     27  C   UNL d   1       3.949  -4.596  -0.029  0.00  0.00     0.037 A 
ATOM     28  C   UNL d   1       3.605  -3.299  -0.413  0.00  0.00     0.012 A 
BRANCH  26  29
ATOM     29  O   UNL d   1       4.303  -6.204   1.699  0.00  0.00    -0.361 OA
ATOM     30  H   UNL d   1       4.497  -6.729   0.903  0.00  0.00     0.217 HD
ENDBRANCH  26  29
ENDBRANCH  13  23
BRANCH  18  31
ATOM     31  O   UNL d   1       0.643   3.153  -1.818  0.00  0.00    -0.360 OA
ATOM     32  H   UNL d   1      -0.018   2.585  -1.398  0.00  0.00     0.217 HD
ENDBRANCH  18  31
BRANCH  20  33
ATOM     33  O   UNL d   1       4.920   2.984  -3.887  0.00  0.00    -0.361 OA
ATOM     34  H   UNL d   1       4.571   3.824  -4.232  0.00  0.00     0.217 HD
ENDBRANCH  20  33
ENDBRANCH   2  11
BRANCH   8  35
ATOM     35  O   UNL d   1       2.964   2.222   0.915  0.00  0.00    -0.360 OA
ATOM     36  H   UNL d   1       3.517   2.792   1.476  0.00  0.00     0.217 HD
ENDBRANCH   8  35
BRANCH   6  37
ATOM     37  C   UNL d   1      -3.737  -0.237   0.423  0.00  0.00    -0.021 A 
ATOM     38  C   UNL d   1      -4.608  -1.200   0.930  0.00  0.00     0.049 A 
ATOM     39  C   UNL d   1      -5.527  -1.822   0.085  0.00  0.00     0.102 A 
ATOM     40  C   UNL d   1      -5.574  -1.479  -1.267  0.00  0.00     0.134 A 
ATOM     41  C   UNL d   1      -4.702  -0.515  -1.773  0.00  0.00     0.102 A 
ATOM     42  C   UNL d   1      -3.783   0.106  -0.927  0.00  0.00     0.049 A 
BRANCH  39  43
ATOM     43  O   UNL d   1      -6.374  -2.761   0.591  0.00  0.00    -0.358 OA
ATOM     44  H   UNL d   1      -6.198  -2.867   1.542  0.00  0.00     0.217 HD
ENDBRANCH  39  43
BRANCH  40  45
ATOM     45  O   UNL d   1      -6.474  -2.086  -2.093  0.00  0.00    -0.351 OA
ATOM     46  C   UNL d   1      -5.947  -2.816  -3.198  0.00  0.00     0.210 C 
ENDBRANCH  40  45
BRANCH  41  47
ATOM     47  O   UNL d   1      -4.737  -0.172  -3.091  0.00  0.00    -0.358 OA
ATOM     48  H   UNL d   1      -4.062   0.507  -3.261  0.00  0.00     0.217 HD
ENDBRANCH  41  47
ENDBRANCH   6  37
BRANCH   9  49
ATOM     49  O   UNL d   1      -0.159   3.717   4.166  0.00  0.00    -0.360 OA
ATOM     50  H   UNL d   1       0.661   4.154   4.455  0.00  0.00     0.217 HD
ENDBRANCH   9  49
BRANCH   5  51
ATOM     51  O   UNL d   1      -3.600   2.681   0.992  0.00  0.00    -0.392 OA
ATOM     52  H   UNL d   1      -3.987   3.454   1.438  0.00  0.00     0.210 HD
ENDBRANCH   5  51
TORSDOF 13
