REMARK  6 active torsions:
REMARK  status: ('A' for Active; 'I' for Inactive)
REMARK    1  A    between atoms: O_1  and  C_10 
REMARK    2  A    between atoms: O_1  and  C_13 
REMARK    3  A    between atoms: C_3  and  C_4 
REMARK    4  A    between atoms: C_3  and  C_5 
REMARK    5  A    between atoms: C_4  and  C_6 
REMARK    6  A    between atoms: C_7  and  C_10 
ROOT
ATOM      1  C   UNL d   1      -0.470  -1.730   0.047  0.00  0.00    -0.085 C 
ATOM      2  C   UNL d   1       0.603  -1.535  -0.743  0.00  0.00     0.002 C 
ATOM      3  C   UNL d   1      -0.335  -1.612   1.544  0.00  0.00     0.043 C 
ENDROOT
BRANCH   1   4
ATOM      4  C   UNL d   1      -1.852  -2.104  -0.447  0.00  0.00     0.037 C 
BRANCH   4   5
ATOM      5  C   UNL d   1      -2.933  -1.072  -0.098  0.00  0.00     0.031 C 
BRANCH   5   6
ATOM      6  C   UNL d   1      -2.643   0.287  -0.673  0.00  0.00    -0.024 C 
ATOM      7  C   UNL d   1      -2.573   1.465  -0.025  0.00  0.00    -0.091 C 
ATOM      8  C   UNL d   1      -2.275   2.732  -0.783  0.00  0.00     0.042 C 
ATOM      9  C   UNL d   1      -2.756   1.657   1.453  0.00  0.00     0.042 C 
ENDBRANCH   5   6
ENDBRANCH   4   5
ENDBRANCH   1   4
BRANCH   2  10
ATOM     10  C   UNL d   1       2.001  -1.197  -0.330  0.00  0.00     0.206 C 
BRANCH  10  11
ATOM     11  O   UNL d   1       2.142   0.217  -0.324  0.00  0.00    -0.318 OA
BRANCH  11  12
ATOM     12  C   UNL d   1       3.374   0.691   0.035  0.00  0.00     0.255 C 
ATOM     13  O   UNL d   1       4.344   0.012   0.345  0.00  0.00    -0.266 OA
ATOM     14  C   UNL d   1       3.375   2.189  -0.003  0.00  0.00     0.126 C 
ENDBRANCH  11  12
ENDBRANCH  10  11
ENDBRANCH   2  10
TORSDOF 6
