REMARK  11 active torsions:
REMARK  status: ('A' for Active; 'I' for Inactive)
REMARK    1  A    between atoms: O_1  and  C_12 
REMARK    2  A    between atoms: O_1  and  C_27 
REMARK    3  A    between atoms: N_5  and  C_7 
REMARK       I    between atoms: N_5  and  C_11 
REMARK    4  A    between atoms: N_6  and  C_8 
REMARK       I    between atoms: N_6  and  C_17 
REMARK    5  A    between atoms: C_7  and  C_9 
REMARK    6  A    between atoms: C_7  and  C_12 
REMARK    7  A    between atoms: C_8  and  C_10 
REMARK    8  A    between atoms: C_8  and  C_11 
REMARK    9  A    between atoms: C_9  and  C_13 
REMARK   10  A    between atoms: C_10  and  C_14 
REMARK   11  A    between atoms: C_17  and  C_22 
ROOT
ATOM      1  C   UNL d   1      -0.332   1.473   0.234  0.00  0.00     0.181 C 
ENDROOT
BRANCH   1   2
ATOM      2  N   UNL d   1      -1.760   1.578   0.398  0.00  0.00    -0.343 N 
ATOM      3  C   UNL d   1      -2.658   0.959  -0.461  0.00  0.00     0.252 C 
ATOM      4  O   UNL d   1      -2.341   0.272  -1.429  0.00  0.00    -0.268 OA
ATOM      5  H   UNL d   1      -2.092   2.150   1.167  0.00  0.00     0.163 HD
BRANCH   3   6
ATOM      6  C   UNL d   1      -4.097   1.185  -0.173  0.00  0.00     0.032 A 
ATOM      7  C   UNL d   1      -5.034   1.119  -1.204  0.00  0.00     0.017 A 
ATOM      8  C   UNL d   1      -6.386   1.332  -0.933  0.00  0.00     0.001 A 
ATOM      9  C   UNL d   1      -6.801   1.611   0.369  0.00  0.00     0.000 A 
ATOM     10  C   UNL d   1      -5.864   1.677   1.400  0.00  0.00     0.001 A 
ATOM     11  C   UNL d   1      -4.512   1.464   1.130  0.00  0.00     0.017 A 
ENDBRANCH   3   6
ENDBRANCH   1   2
BRANCH   1  12
ATOM     12  C   UNL d   1       0.406   2.696   0.792  0.00  0.00     0.073 C 
BRANCH  12  13
ATOM     13  C   UNL d   1       1.790   2.856   0.213  0.00  0.00    -0.056 A 
ATOM     14  C   UNL d   1       2.881   2.251   0.836  0.00  0.00     0.007 A 
ATOM     15  C   UNL d   1       4.161   2.399   0.301  0.00  0.00     0.001 A 
ATOM     16  C   UNL d   1       4.349   3.152  -0.858  0.00  0.00     0.000 A 
ATOM     17  C   UNL d   1       3.258   3.758  -1.481  0.00  0.00     0.001 A 
ATOM     18  C   UNL d   1       1.978   3.610  -0.946  0.00  0.00     0.007 A 
ENDBRANCH  12  13
ENDBRANCH   1  12
BRANCH   1  19
ATOM     19  C   UNL d   1       0.113   0.209   0.960  0.00  0.00     0.241 C 
ATOM     20  O   UNL d   1      -0.412  -0.187   1.998  0.00  0.00    -0.271 OA
ATOM     21  N   UNL d   1       1.130  -0.449   0.281  0.00  0.00    -0.352 N 
ATOM     22  H   UNL d   1       1.500  -0.043  -0.574  0.00  0.00     0.163 HD
BRANCH  21  23
ATOM     23  C   UNL d   1       1.702  -1.699   0.727  0.00  0.00     0.113 C 
BRANCH  23  24
ATOM     24  C   UNL d   1       1.517  -2.793  -0.337  0.00  0.00     0.065 C 
BRANCH  24  25
ATOM     25  C   UNL d   1       0.115  -3.355  -0.371  0.00  0.00    -0.056 A 
ATOM     26  C   UNL d   1      -0.848  -2.775  -1.196  0.00  0.00     0.007 A 
ATOM     27  C   UNL d   1      -2.143  -3.293  -1.227  0.00  0.00     0.001 A 
ATOM     28  C   UNL d   1      -2.474  -4.392  -0.433  0.00  0.00     0.000 A 
ATOM     29  C   UNL d   1      -1.510  -4.972   0.391  0.00  0.00     0.001 A 
ATOM     30  C   UNL d   1      -0.216  -4.453   0.423  0.00  0.00     0.007 A 
ENDBRANCH  24  25
ENDBRANCH  23  24
BRANCH  23  31
ATOM     31  C   UNL d   1       3.185  -1.504   1.046  0.00  0.00     0.204 C 
BRANCH  31  32
ATOM     32  O   UNL d   1       3.883  -1.153  -0.144  0.00  0.00    -0.320 OA
BRANCH  32  33
ATOM     33  C   UNL d   1       5.227  -0.948  -0.006  0.00  0.00     0.254 C 
ATOM     34  O   UNL d   1       5.867  -1.038   1.033  0.00  0.00    -0.266 OA
ATOM     35  C   UNL d   1       5.826  -0.589  -1.332  0.00  0.00     0.126 C 
ENDBRANCH  32  33
ENDBRANCH  31  32
ENDBRANCH  23  31
ENDBRANCH  21  23
ENDBRANCH   1  19
TORSDOF 11
