REMARK  1 active torsions:
REMARK  status: ('A' for Active; 'I' for Inactive)
REMARK    1  A    between atoms: O_1  and  C_7 
ROOT
ATOM      1  C   UNL d   1      -1.004  -0.295   0.660  0.00  0.00     0.006 A 
ATOM      2  C   UNL d   1      -2.317  -0.267  -0.080  0.00  0.00    -0.039 A 
ATOM      3  C   UNL d   1      -1.810   0.980   0.595  0.00  0.00    -0.001 A 
ATOM      4  C   UNL d   1       0.295  -0.402  -0.094  0.00  0.00     0.033 C 
ATOM      5  C   UNL d   1       1.344   0.567   0.518  0.00  0.00     0.021 C 
ATOM      6  C   UNL d   1       0.958  -1.811  -0.072  0.00  0.00     0.059 C 
ATOM      7  C   UNL d   1      -1.330   2.155  -0.202  0.00  0.00     0.010 C 
ATOM      8  C   UNL d   1      -3.465  -0.966   0.567  0.00  0.00     0.015 C 
ATOM      9  C   UNL d   1      -2.346  -0.361  -1.567  0.00  0.00     0.015 C 
ATOM     10  C   UNL d   1       2.674  -0.163   0.294  0.00  0.00     0.012 C 
ATOM     11  C   UNL d   1       2.321  -1.612   0.605  0.00  0.00     0.038 C 
ATOM     12  C   UNL d   1      -0.042   2.748   0.381  0.00  0.00     0.034 C 
ATOM     13  C   UNL d   1       1.216   1.989  -0.008  0.00  0.00    -0.085 C 
ATOM     14  C   UNL d   1       0.172  -2.945   0.577  0.00  0.00     0.046 C 
ATOM     15  C   UNL d   1       2.157   2.605  -0.745  0.00  0.00     0.014 C 
ENDROOT
BRANCH   6  16
ATOM     16  O   UNL d   1       1.177  -2.223  -1.430  0.00  0.00    -0.390 OA
ATOM     17  H   UNL d   1       0.308  -2.300  -1.861  0.00  0.00     0.210 HD
ENDBRANCH   6  16
TORSDOF 1
