REMARK  14 active torsions:
REMARK  status: ('A' for Active; 'I' for Inactive)
REMARK    1  A    between atoms: O_3  and  C_20 
REMARK    2  A    between atoms: O_4  and  C_22 
REMARK    3  A    between atoms: O_5  and  C_23 
REMARK    4  A    between atoms: O_5  and  C_28 
REMARK    5  A    between atoms: O_10  and  C_33 
REMARK    6  A    between atoms: O_11  and  C_35 
REMARK    7  A    between atoms: O_12  and  C_37 
REMARK    8  A    between atoms: O_13  and  C_38 
REMARK    9  A    between atoms: O_14  and  C_39 
REMARK   10  A    between atoms: O_15  and  C_40 
REMARK   11  A    between atoms: O_16  and  C_43 
REMARK   12  A    between atoms: O_17  and  C_44 
REMARK   13  A    between atoms: O_18  and  C_45 
REMARK   14  A    between atoms: C_28  and  C_34 
ROOT
ATOM      1  O   UNL d   1      -1.640  -3.777   0.413  0.00  0.00    -0.348 OA
ATOM      2  O   UNL d   1       0.158  -1.403  -1.538  0.00  0.00    -0.306 OA
ATOM      3  O   UNL d   1       1.067  -1.594   1.637  0.00  0.00    -0.315 OA
ATOM      4  O   UNL d   1       2.444  -1.275  -1.897  0.00  0.00    -0.259 OA
ATOM      5  O   UNL d   1       0.413   0.604   1.980  0.00  0.00    -0.259 OA
ATOM      6  C   UNL d   1       0.138  -2.838  -1.693  0.00  0.00     0.197 C 
ATOM      7  C   UNL d   1       0.657  -3.526  -0.426  0.00  0.00     0.181 C 
ATOM      8  C   UNL d   1      -0.307  -3.390   0.765  0.00  0.00     0.180 C 
ATOM      9  C   UNL d   1      -1.307  -3.266  -1.988  0.00  0.00     0.206 C 
ATOM     10  C   UNL d   1      -2.211  -3.172  -0.753  0.00  0.00     0.301 C 
ATOM     11  C   UNL d   1      -0.289  -2.034   1.484  0.00  0.00     0.213 C 
ATOM     12  C   UNL d   1       1.355  -0.775  -1.676  0.00  0.00     0.294 C 
ATOM     13  C   UNL d   1       1.140   0.673  -1.484  0.00  0.00     0.056 A 
ATOM     14  C   UNL d   1       1.930   1.421  -0.583  0.00  0.00     0.030 A 
ATOM     15  C   UNL d   1       1.246  -0.256   1.753  0.00  0.00     0.294 C 
ATOM     16  C   UNL d   1       2.960   0.824   0.288  0.00  0.00     0.030 A 
ATOM     17  C   UNL d   1       2.649   0.022   1.406  0.00  0.00     0.056 A 
ATOM     18  C   UNL d   1       0.152   1.294  -2.262  0.00  0.00     0.058 A 
ATOM     19  C   UNL d   1       1.690   2.806  -0.498  0.00  0.00     0.114 A 
ATOM     20  C   UNL d   1       4.319   1.054   0.011  0.00  0.00     0.114 A 
ATOM     21  C   UNL d   1       3.652  -0.533   2.209  0.00  0.00     0.058 A 
ATOM     22  C   UNL d   1      -0.065   2.665  -2.151  0.00  0.00     0.102 A 
ATOM     23  C   UNL d   1       0.704   3.421  -1.272  0.00  0.00     0.133 A 
ATOM     24  C   UNL d   1       5.323   0.502   0.811  0.00  0.00     0.133 A 
ATOM     25  C   UNL d   1       4.989  -0.291   1.907  0.00  0.00     0.102 A 
ENDROOT
BRANCH  10  26
ATOM     26  O   UNL d   1      -2.654  -1.836  -0.535  0.00  0.00    -0.283 OA
BRANCH  26  27
ATOM     27  C   UNL d   1      -3.515  -1.656   0.503  0.00  0.00     0.295 C 
ATOM     28  O   UNL d   1      -3.933  -2.527   1.250  0.00  0.00    -0.259 OA
BRANCH  27  29
ATOM     29  C   UNL d   1      -3.900  -0.227   0.622  0.00  0.00     0.045 A 
ATOM     30  C   UNL d   1      -5.146   0.089   1.125  0.00  0.00     0.057 A 
ATOM     31  C   UNL d   1      -5.508   1.431   1.236  0.00  0.00     0.102 A 
ATOM     32  C   UNL d   1      -4.616   2.429   0.843  0.00  0.00     0.132 A 
ATOM     33  C   UNL d   1      -3.362   2.084   0.338  0.00  0.00     0.102 A 
ATOM     34  C   UNL d   1      -3.001   0.742   0.227  0.00  0.00     0.057 A 
BRANCH  31  35
ATOM     35  O   UNL d   1      -6.736   1.755   1.730  0.00  0.00    -0.358 OA
ATOM     36  H   UNL d   1      -7.215   0.938   1.950  0.00  0.00     0.217 HD
ENDBRANCH  31  35
BRANCH  32  37
ATOM     37  O   UNL d   1      -4.970   3.741   0.953  0.00  0.00    -0.356 OA
ATOM     38  H   UNL d   1      -4.229   4.286   0.634  0.00  0.00     0.218 HD
ENDBRANCH  32  37
BRANCH  33  39
ATOM     39  O   UNL d   1      -2.483   3.049  -0.051  0.00  0.00    -0.358 OA
ATOM     40  H   UNL d   1      -1.609   2.636  -0.142  0.00  0.00     0.217 HD
ENDBRANCH  33  39
ENDBRANCH  27  29
ENDBRANCH  26  27
ENDBRANCH  10  26
BRANCH   9  41
ATOM     41  O   UNL d   1      -1.326  -4.618  -2.443  0.00  0.00    -0.388 OA
ATOM     42  H   UNL d   1      -0.781  -4.664  -3.247  0.00  0.00     0.210 HD
ENDBRANCH   9  41
BRANCH   7  43
ATOM     43  O   UNL d   1       0.831  -4.923  -0.684  0.00  0.00    -0.390 OA
ATOM     44  H   UNL d   1       1.463  -5.008  -1.418  0.00  0.00     0.210 HD
ENDBRANCH   7  43
BRANCH  19  45
ATOM     45  O   UNL d   1       2.407   3.580   0.374  0.00  0.00    -0.357 OA
ATOM     46  H   UNL d   1       2.876   3.035   1.025  0.00  0.00     0.217 HD
ENDBRANCH  19  45
BRANCH  22  47
ATOM     47  O   UNL d   1      -1.028   3.254  -2.913  0.00  0.00    -0.358 OA
ATOM     48  H   UNL d   1      -1.463   2.575  -3.457  0.00  0.00     0.217 HD
ENDBRANCH  22  47
BRANCH  20  49
ATOM     49  O   UNL d   1       4.688   1.810  -1.069  0.00  0.00    -0.357 OA
ATOM     50  H   UNL d   1       5.570   1.535  -1.370  0.00  0.00     0.217 HD
ENDBRANCH  20  49
BRANCH  25  51
ATOM     51  O   UNL d   1       5.962  -0.833   2.693  0.00  0.00    -0.358 OA
ATOM     52  H   UNL d   1       5.544  -1.351   3.403  0.00  0.00     0.217 HD
ENDBRANCH  25  51
BRANCH  23  53
ATOM     53  O   UNL d   1       0.489   4.763  -1.163  0.00  0.00    -0.356 OA
ATOM     54  H   UNL d   1      -0.232   5.009  -1.769  0.00  0.00     0.218 HD
ENDBRANCH  23  53
BRANCH  24  55
ATOM     55  O   UNL d   1       6.635   0.735   0.518  0.00  0.00    -0.356 OA
ATOM     56  H   UNL d   1       6.712   1.566   0.022  0.00  0.00     0.218 HD
ENDBRANCH  24  55
TORSDOF 14
