REMARK  0 active torsions:
REMARK  status: ('A' for Active; 'I' for Inactive)
ROOT
ATOM      1  O   UNL d   1       2.661   0.766  -0.421  0.00  0.00    -0.293 OA
ATOM      2  C   UNL d   1      -1.385  -0.068  -0.356  0.00  0.00    -0.036 C 
ATOM      3  C   UNL d   1      -0.899   1.119   0.531  0.00  0.00     0.002 C 
ATOM      4  C   UNL d   1      -0.459  -0.951   0.544  0.00  0.00     0.030 C 
ATOM      5  C   UNL d   1      -0.828   0.064   1.677  0.00  0.00     0.016 C 
ATOM      6  C   UNL d   1       0.483   1.652   0.118  0.00  0.00     0.089 C 
ATOM      7  C   UNL d   1       0.976  -0.842   0.144  0.00  0.00    -0.017 C 
ATOM      8  C   UNL d   1      -2.868  -0.377  -0.344  0.00  0.00     0.016 C 
ATOM      9  C   UNL d   1      -0.933   0.019  -1.807  0.00  0.00     0.016 C 
ATOM     10  C   UNL d   1       1.502   0.540  -0.089  0.00  0.00     0.155 C 
ATOM     11  C   UNL d   1       1.749  -1.922   0.003  0.00  0.00     0.023 C 
ENDROOT
TORSDOF 0
