REMARK  5 active torsions:
REMARK  status: ('A' for Active; 'I' for Inactive)
REMARK    1  A    between atoms: O_1  and  C_10 
REMARK    2  A    between atoms: O_2  and  C_8 
REMARK    3  A    between atoms: O_3  and  C_9 
REMARK    4  A    between atoms: C_4  and  C_5 
REMARK    5  A    between atoms: C_5  and  C_11 
ROOT
ATOM      1  C   UNL d   1      -1.300  -0.335   0.552  0.00  0.00    -0.049 A 
ATOM      2  C   UNL d   1      -0.347  -1.353   0.511  0.00  0.00     0.047 A 
ATOM      3  C   UNL d   1      -0.928   0.981   0.278  0.00  0.00     0.047 A 
ATOM      4  C   UNL d   1       0.398   1.279  -0.037  0.00  0.00     0.104 A 
ATOM      5  C   UNL d   1       0.979  -1.054   0.196  0.00  0.00     0.104 A 
ATOM      6  C   UNL d   1       1.351   0.262  -0.078  0.00  0.00     0.135 A 
ENDROOT
BRANCH   1   7
ATOM      7  C   UNL d   1      -2.718  -0.654   0.888  0.00  0.00     0.065 C 
BRANCH   7   8
ATOM      8  C   UNL d   1      -3.551  -0.983  -0.324  0.00  0.00    -0.032 C 
ATOM      9  C   UNL d   1      -4.612  -0.271  -0.723  0.00  0.00     0.007 C 
ENDBRANCH   7   8
ENDBRANCH   1   7
BRANCH   5  10
ATOM     10  O   UNL d   1       1.900  -2.058   0.159  0.00  0.00    -0.353 OA
ATOM     11  C   UNL d   1       2.087  -2.720  -1.090  0.00  0.00     0.210 C 
ENDBRANCH   5  10
BRANCH   4  12
ATOM     12  O   UNL d   1       0.749   2.568  -0.302  0.00  0.00    -0.353 OA
ATOM     13  C   UNL d   1      -0.286   3.548  -0.239  0.00  0.00     0.210 C 
ENDBRANCH   4  12
BRANCH   6  14
ATOM     14  O   UNL d   1       2.647   0.553  -0.386  0.00  0.00    -0.351 OA
ATOM     15  C   UNL d   1       3.632   0.238   0.596  0.00  0.00     0.210 C 
ENDBRANCH   6  14
TORSDOF 5
