REMARK  12 active torsions:
REMARK  status: ('A' for Active; 'I' for Inactive)
REMARK    1  A    between atoms: O_1  and  C_13 
REMARK    2  A    between atoms: C_2  and  C_3 
REMARK    3  A    between atoms: C_2  and  C_4 
REMARK    4  A    between atoms: C_3  and  C_5 
REMARK    5  A    between atoms: C_4  and  C_6 
REMARK    6  A    between atoms: C_5  and  C_7 
REMARK    7  A    between atoms: C_6  and  C_8 
REMARK    8  A    between atoms: C_7  and  C_9 
REMARK    9  A    between atoms: C_8  and  C_10 
REMARK   10  A    between atoms: C_9  and  C_11 
REMARK   11  A    between atoms: C_10  and  C_12 
REMARK   12  A    between atoms: C_11  and  C_13 
ROOT
ATOM      1  C   UNL d   1      -0.683   0.410  -0.068  0.00  0.00     0.000 C 
ENDROOT
BRANCH   1   2
ATOM      2  C   UNL d   1       0.621  -0.393  -0.069  0.00  0.00     0.000 C 
BRANCH   2   3
ATOM      3  C   UNL d   1       1.876   0.484  -0.058  0.00  0.00     0.000 C 
BRANCH   3   4
ATOM      4  C   UNL d   1       3.146  -0.371  -0.047  0.00  0.00     0.000 C 
BRANCH   4   5
ATOM      5  C   UNL d   1       4.435   0.455  -0.005  0.00  0.00     0.000 C 
BRANCH   5   6
ATOM      6  C   UNL d   1       5.740  -0.348   0.029  0.00  0.00    -0.000 C 
BRANCH   6   7
ATOM      7  C   UNL d   1       7.027   0.479   0.014  0.00  0.00    -0.005 C 
ATOM      8  C   UNL d   1       8.289  -0.362   0.132  0.00  0.00     0.005 C 
ENDBRANCH   6   7
ENDBRANCH   5   6
ENDBRANCH   4   5
ENDBRANCH   3   4
ENDBRANCH   2   3
ENDBRANCH   1   2
BRANCH   1   9
ATOM      9  C   UNL d   1      -1.938  -0.467  -0.054  0.00  0.00     0.000 C 
BRANCH   9  10
ATOM     10  C   UNL d   1      -3.208   0.386  -0.023  0.00  0.00     0.000 C 
BRANCH  10  11
ATOM     11  C   UNL d   1      -4.464  -0.486  -0.042  0.00  0.00     0.002 C 
BRANCH  11  12
ATOM     12  C   UNL d   1      -5.731   0.364   0.023  0.00  0.00     0.026 C 
BRANCH  12  13
ATOM     13  C   UNL d   1      -6.986  -0.499   0.047  0.00  0.00     0.164 C 
BRANCH  13  14
ATOM     14  O   UNL d   1      -8.124   0.348   0.122  0.00  0.00    -0.401 OA
ATOM     15  H   UNL d   1      -8.907  -0.227   0.136  0.00  0.00     0.209 HD
ENDBRANCH  13  14
ENDBRANCH  12  13
ENDBRANCH  11  12
ENDBRANCH  10  11
ENDBRANCH   9  10
ENDBRANCH   1   9
TORSDOF 12
