REMARK  1 active torsions:
REMARK  status: ('A' for Active; 'I' for Inactive)
REMARK    1  A    between atoms: C_5  and  C_10 
ROOT
ATOM      1  N   UNL d   1      -1.692   0.515  -0.000  0.00  0.00    -0.370 N 
ATOM      2  C   UNL d   1      -0.400   0.871  -0.001  0.00  0.00     0.108 A 
ATOM      3  C   UNL d   1       0.588  -0.103  -0.000  0.00  0.00     0.056 A 
ATOM      4  C   UNL d   1      -2.084  -0.766  -0.000  0.00  0.00     0.090 A 
ATOM      5  C   UNL d   1       0.210  -1.442  -0.000  0.00  0.00     0.021 A 
ATOM      6  C   UNL d   1      -2.711   1.561   0.001  0.00  0.00     0.154 C 
ATOM      7  C   UNL d   1      -1.139  -1.782   0.000  0.00  0.00     0.018 A 
ENDROOT
BRANCH   3   8
ATOM      8  C   UNL d   1       2.009   0.275   0.000  0.00  0.00     0.210 C 
ATOM      9  O   UNL d   1       2.319   1.526  -0.000  0.00  0.00    -0.644 OA
ATOM     10  O   UNL d   1       2.900  -0.655   0.001  0.00  0.00    -0.644 OA
ENDBRANCH   3   8
TORSDOF 1
