REMARK  3 active torsions:
REMARK  status: ('A' for Active; 'I' for Inactive)
REMARK    1  A    between atoms: O_3  and  C_19 
REMARK    2  A    between atoms: O_4  and  C_15 
REMARK    3  A    between atoms: C_5  and  C_7 
ROOT
ATOM      1  O   UNL d   1      -1.745   1.848  -0.058  0.00  0.00    -0.321 OA
ATOM      2  O   UNL d   1      -0.299  -1.967   0.031  0.00  0.00    -0.286 OA
ATOM      3  C   UNL d   1       0.177   0.366   0.030  0.00  0.00     0.048 A 
ATOM      4  C   UNL d   1      -2.172  -0.541  -0.005  0.00  0.00     0.049 A 
ATOM      5  C   UNL d   1      -0.724  -0.819   0.024  0.00  0.00     0.197 A 
ATOM      6  C   UNL d   1      -2.609   0.783  -0.046  0.00  0.00     0.091 A 
ATOM      7  C   UNL d   1      -0.399   1.577  -0.009  0.00  0.00     0.159 A 
ATOM      8  C   UNL d   1      -3.099  -1.587   0.004  0.00  0.00     0.021 A 
ATOM      9  C   UNL d   1      -3.974   1.069  -0.078  0.00  0.00     0.074 A 
ATOM     10  C   UNL d   1      -4.901   0.026  -0.068  0.00  0.00     0.068 A 
ATOM     11  C   UNL d   1      -4.464  -1.299  -0.027  0.00  0.00     0.037 A 
ENDROOT
BRANCH   3  12
ATOM     12  C   UNL d   1       1.642   0.231   0.098  0.00  0.00    -0.020 A 
ATOM     13  C   UNL d   1       2.285   0.180   1.336  0.00  0.00     0.015 A 
ATOM     14  C   UNL d   1       3.672   0.052   1.399  0.00  0.00     0.037 A 
ATOM     15  C   UNL d   1       4.420  -0.026   0.225  0.00  0.00     0.068 A 
ATOM     16  C   UNL d   1       3.780   0.025  -1.014  0.00  0.00     0.037 A 
ATOM     17  C   UNL d   1       2.393   0.153  -1.077  0.00  0.00     0.015 A 
BRANCH  15  18
ATOM     18  O   UNL d   1       5.774  -0.150   0.286  0.00  0.00    -0.356 OA
ATOM     19  C   UNL d   1       6.477  -0.224  -0.953  0.00  0.00     0.210 C 
ENDBRANCH  15  18
ENDBRANCH   3  12
BRANCH  10  20
ATOM     20  O   UNL d   1      -6.234   0.301  -0.099  0.00  0.00    -0.361 OA
ATOM     21  H   UNL d   1      -6.729  -0.536  -0.086  0.00  0.00     0.217 HD
ENDBRANCH  10  20
TORSDOF 3
