REMARK  8 active torsions:
REMARK  status: ('A' for Active; 'I' for Inactive)
REMARK    1  A    between atoms: O_1  and  C_14 
REMARK    2  A    between atoms: C_2  and  C_4 
REMARK    3  A    between atoms: C_2  and  C_6 
REMARK    4  A    between atoms: C_3  and  C_5 
REMARK    5  A    between atoms: C_3  and  C_7 
REMARK    6  A    between atoms: C_5  and  C_8 
REMARK    7  A    between atoms: C_6  and  C_10 
REMARK    8  A    between atoms: C_13  and  C_14 
ROOT
ATOM      1  C   UNL d   1      -0.479   0.773   0.837  0.00  0.00    -0.087 C 
ATOM      2  C   UNL d   1       0.287   0.825  -0.270  0.00  0.00    -0.024 C 
ATOM      3  C   UNL d   1      -0.503   1.950   1.781  0.00  0.00     0.043 C 
ENDROOT
BRANCH   2   4
ATOM      4  C   UNL d   1       1.179   1.939  -0.746  0.00  0.00     0.031 C 
BRANCH   4   5
ATOM      5  C   UNL d   1       2.597   1.795  -0.183  0.00  0.00     0.037 C 
BRANCH   5   6
ATOM      6  C   UNL d   1       3.212   0.456  -0.527  0.00  0.00    -0.085 C 
ATOM      7  C   UNL d   1       3.388   0.192  -2.000  0.00  0.00     0.043 C 
ATOM      8  C   UNL d   1       3.570  -0.475   0.378  0.00  0.00     0.001 C 
BRANCH   8   9
ATOM      9  C   UNL d   1       4.157  -1.823   0.104  0.00  0.00     0.191 C 
BRANCH   9  10
ATOM     10  O   UNL d   1       3.304  -2.812   0.668  0.00  0.00    -0.397 OA
ATOM     11  H   UNL d   1       3.278  -2.670   1.630  0.00  0.00     0.209 HD
ENDBRANCH   9  10
ENDBRANCH   8   9
ENDBRANCH   5   6
ENDBRANCH   4   5
ENDBRANCH   2   4
BRANCH   1  12
ATOM     12  C   UNL d   1      -1.310  -0.416   1.270  0.00  0.00     0.037 C 
BRANCH  12  13
ATOM     13  C   UNL d   1      -2.796  -0.098   1.491  0.00  0.00     0.031 C 
BRANCH  13  14
ATOM     14  C   UNL d   1      -3.505   0.286   0.222  0.00  0.00    -0.024 C 
ATOM     15  C   UNL d   1      -4.124  -0.518  -0.663  0.00  0.00    -0.091 C 
ATOM     16  C   UNL d   1      -4.816  -0.064  -1.917  0.00  0.00     0.042 C 
ATOM     17  C   UNL d   1      -4.160  -2.008  -0.445  0.00  0.00     0.042 C 
ENDBRANCH  13  14
ENDBRANCH  12  13
ENDBRANCH   1  12
TORSDOF 8
