REMARK  4 active torsions:
REMARK  status: ('A' for Active; 'I' for Inactive)
REMARK    1  A    between atoms: O_1  and  C_13 
REMARK    2  A    between atoms: O_4  and  C_16 
REMARK    3  A    between atoms: O_5  and  C_18 
REMARK    4  A    between atoms: C_14  and  C_18 
ROOT
ATOM      1  O   UNL d   1      -0.952  -2.424   0.044  0.00  0.00    -0.286 OA
ATOM      2  O   UNL d   1      -0.035   2.837  -0.142  0.00  0.00    -0.287 OA
ATOM      3  C   UNL d   1       0.879   0.673  -0.126  0.00  0.00     0.032 A 
ATOM      4  C   UNL d   1       0.640  -0.702  -0.077  0.00  0.00     0.062 A 
ATOM      5  C   UNL d   1      -1.866  -0.261   0.026  0.00  0.00     0.062 A 
ATOM      6  C   UNL d   1      -1.626   1.114  -0.023  0.00  0.00     0.032 A 
ATOM      7  C   UNL d   1      -0.742  -1.219   0.001  0.00  0.00     0.199 A 
ATOM      8  C   UNL d   1      -0.245   1.631  -0.101  0.00  0.00     0.194 A 
ATOM      9  C   UNL d   1       2.193   1.151  -0.200  0.00  0.00     0.026 A 
ATOM     10  C   UNL d   1       1.714  -1.599  -0.102  0.00  0.00     0.081 A 
ATOM     11  C   UNL d   1       3.261   0.253  -0.224  0.00  0.00    -0.031 A 
ATOM     12  C   UNL d   1       3.022  -1.119  -0.175  0.00  0.00     0.046 A 
ATOM     13  C   UNL d   1      -3.180  -0.739   0.099  0.00  0.00     0.080 A 
ATOM     14  C   UNL d   1      -2.700   2.011   0.001  0.00  0.00     0.017 A 
ATOM     15  C   UNL d   1      -4.248   0.159   0.123  0.00  0.00     0.037 A 
ATOM     16  C   UNL d   1      -4.008   1.531   0.075  0.00  0.00     0.004 A 
ENDROOT
BRANCH  11  17
ATOM     17  C   UNL d   1       4.661   0.762  -0.303  0.00  0.00     0.203 C 
BRANCH  17  18
ATOM     18  O   UNL d   1       5.165   0.961   1.012  0.00  0.00    -0.396 OA
ATOM     19  H   UNL d   1       4.512   1.475   1.516  0.00  0.00     0.209 HD
ENDBRANCH  17  18
ENDBRANCH  11  17
BRANCH  10  20
ATOM     20  O   UNL d   1       1.552  -2.953  -0.058  0.00  0.00    -0.360 OA
ATOM     21  H   UNL d   1       2.422  -3.387  -0.087  0.00  0.00     0.217 HD
ENDBRANCH  10  20
BRANCH  13  22
ATOM     22  O   UNL d   1      -3.486  -2.066   0.151  0.00  0.00    -0.360 OA
ATOM     23  H   UNL d   1      -2.683  -2.606   0.129  0.00  0.00     0.217 HD
ENDBRANCH  13  22
TORSDOF 4
