REMARK  3 active torsions:
REMARK  status: ('A' for Active; 'I' for Inactive)
REMARK    1  A    between atoms: O_3  and  C_7 
REMARK    2  A    between atoms: C_4  and  C_10 
REMARK    3  A    between atoms: C_10  and  C_12 
ROOT
ATOM      1  O   UNL d   1       2.782   0.013  -0.153  0.00  0.00    -0.320 OA
ATOM      2  O   UNL d   1       1.850  -2.203  -0.311  0.00  0.00    -0.323 OA
ATOM      3  C   UNL d   1      -1.250  -0.410   0.491  0.00  0.00    -0.049 A 
ATOM      4  C   UNL d   1       1.442  -0.001   0.079  0.00  0.00     0.138 A 
ATOM      5  C   UNL d   1       0.909  -1.267  -0.012  0.00  0.00     0.108 A 
ATOM      6  C   UNL d   1       0.659   1.096   0.376  0.00  0.00     0.104 A 
ATOM      7  C   UNL d   1      -0.435  -1.505   0.189  0.00  0.00     0.047 A 
ATOM      8  C   UNL d   1      -0.705   0.883   0.584  0.00  0.00     0.047 A 
ATOM      9  C   UNL d   1       3.034  -1.385  -0.400  0.00  0.00     0.352 A 
ENDROOT
BRANCH   3  10
ATOM     10  C   UNL d   1      -2.710  -0.614   0.718  0.00  0.00     0.065 C 
BRANCH  10  11
ATOM     11  C   UNL d   1      -3.524  -0.498  -0.544  0.00  0.00    -0.032 C 
ATOM     12  C   UNL d   1      -4.468   0.428  -0.748  0.00  0.00     0.007 C 
ENDBRANCH  10  11
ENDBRANCH   3  10
BRANCH   6  13
ATOM     13  O   UNL d   1       1.189   2.342   0.464  0.00  0.00    -0.353 OA
ATOM     14  C   UNL d   1       1.227   3.123  -0.733  0.00  0.00     0.210 C 
ENDBRANCH   6  13
TORSDOF 3
