REMARK  11 active torsions:
REMARK  status: ('A' for Active; 'I' for Inactive)
REMARK    1  A    between atoms: O_1  and  C_7 
REMARK    2  A    between atoms: O_2  and  C_8 
REMARK    3  A    between atoms: O_3  and  C_9 
REMARK    4  A    between atoms: O_4  and  C_10 
REMARK    5  A    between atoms: O_5  and  C_11 
REMARK    6  A    between atoms: O_6  and  C_12 
REMARK    7  A    between atoms: C_7  and  C_8 
REMARK    8  A    between atoms: C_7  and  C_9 
REMARK    9  A    between atoms: C_8  and  C_10 
REMARK   10  A    between atoms: C_9  and  C_11 
REMARK   11  A    between atoms: C_10  and  C_12 
ROOT
ATOM      1  C   UNL d   1       0.607   0.475   0.002  0.00  0.00     0.180 C 
ENDROOT
BRANCH   1   2
ATOM      2  O   UNL d   1       0.517   1.330  -1.137  0.00  0.00    -0.390 OA
ATOM      3  H   UNL d   1       0.678   0.791  -1.929  0.00  0.00     0.210 HD
ENDBRANCH   1   2
BRANCH   1   4
ATOM      4  C   UNL d   1      -0.605  -0.472   0.004  0.00  0.00     0.180 C 
BRANCH   4   5
ATOM      5  O   UNL d   1      -0.516  -1.336  -1.129  0.00  0.00    -0.390 OA
ATOM      6  H   UNL d   1      -0.673  -0.801  -1.926  0.00  0.00     0.210 HD
ENDBRANCH   4   5
BRANCH   4   7
ATOM      7  C   UNL d   1      -1.961   0.260  -0.008  0.00  0.00     0.173 C 
BRANCH   7   8
ATOM      8  O   UNL d   1      -2.065   1.031   1.196  0.00  0.00    -0.391 OA
ATOM      9  H   UNL d   1      -2.014   0.418   1.949  0.00  0.00     0.210 HD
ENDBRANCH   7   8
BRANCH   7  10
ATOM     10  C   UNL d   1      -3.174  -0.669  -0.048  0.00  0.00     0.198 C 
BRANCH  10  11
ATOM     11  O   UNL d   1      -4.372   0.102  -0.014  0.00  0.00    -0.398 OA
ATOM     12  H   UNL d   1      -4.370   0.679  -0.796  0.00  0.00     0.209 HD
ENDBRANCH  10  11
ENDBRANCH   7  10
ENDBRANCH   4   7
ENDBRANCH   1   4
BRANCH   1  13
ATOM     13  C   UNL d   1       1.965  -0.256  -0.004  0.00  0.00     0.173 C 
BRANCH  13  14
ATOM     14  O   UNL d   1       2.067  -1.019   1.206  0.00  0.00    -0.391 OA
ATOM     15  H   UNL d   1       1.488  -1.794   1.115  0.00  0.00     0.210 HD
ENDBRANCH  13  14
BRANCH  13  16
ATOM     16  C   UNL d   1       3.176   0.673  -0.050  0.00  0.00     0.198 C 
BRANCH  16  17
ATOM     17  O   UNL d   1       4.361  -0.119  -0.018  0.00  0.00    -0.398 OA
ATOM     18  H   UNL d   1       4.335  -0.650   0.795  0.00  0.00     0.209 HD
ENDBRANCH  16  17
ENDBRANCH  13  16
ENDBRANCH   1  13
TORSDOF 11
