REMARK  4 active torsions:
REMARK  status: ('A' for Active; 'I' for Inactive)
REMARK    1  A    between atoms: O_2  and  C_11 
REMARK    2  A    between atoms: O_4  and  C_15 
REMARK    3  A    between atoms: O_5  and  C_20 
REMARK    4  A    between atoms: C_7  and  C_10 
ROOT
ATOM      1  O   UNL d   1       1.205   2.034  -0.019  0.00  0.00    -0.321 OA
ATOM      2  O   UNL d   1      -0.086  -1.836  -0.069  0.00  0.00    -0.286 OA
ATOM      3  C   UNL d   1       1.728  -0.336  -0.011  0.00  0.00     0.082 A 
ATOM      4  C   UNL d   1      -0.657   0.475  -0.027  0.00  0.00     0.048 A 
ATOM      5  C   UNL d   1       2.111   1.005  -0.006  0.00  0.00     0.094 A 
ATOM      6  C   UNL d   1       0.292  -0.672  -0.034  0.00  0.00     0.200 A 
ATOM      7  C   UNL d   1       2.696  -1.343   0.002  0.00  0.00     0.085 A 
ATOM      8  C   UNL d   1      -0.130   1.709  -0.019  0.00  0.00     0.159 A 
ATOM      9  C   UNL d   1       3.464   1.346   0.011  0.00  0.00     0.074 A 
ATOM     10  C   UNL d   1       4.048  -1.000   0.019  0.00  0.00     0.074 A 
ATOM     11  C   UNL d   1       4.432   0.341   0.024  0.00  0.00     0.071 A 
ENDROOT
BRANCH   4  12
ATOM     12  C   UNL d   1      -2.116   0.279  -0.009  0.00  0.00    -0.020 A 
ATOM     13  C   UNL d   1      -2.827   0.201  -1.208  0.00  0.00     0.015 A 
ATOM     14  C   UNL d   1      -4.209   0.014  -1.191  0.00  0.00     0.037 A 
ATOM     15  C   UNL d   1      -4.883  -0.095   0.025  0.00  0.00     0.065 A 
ATOM     16  C   UNL d   1      -4.175  -0.017   1.224  0.00  0.00     0.037 A 
ATOM     17  C   UNL d   1      -2.793   0.170   1.207  0.00  0.00     0.015 A 
BRANCH  15  18
ATOM     18  O   UNL d   1      -6.232  -0.277   0.042  0.00  0.00    -0.361 OA
ATOM     19  H   UNL d   1      -6.557  -0.307  -0.875  0.00  0.00     0.217 HD
ENDBRANCH  15  18
ENDBRANCH   4  12
BRANCH   7  20
ATOM     20  O   UNL d   1       2.377  -2.668  -0.001  0.00  0.00    -0.360 OA
ATOM     21  H   UNL d   1       1.415  -2.788   0.009  0.00  0.00     0.217 HD
ENDBRANCH   7  20
BRANCH  11  22
ATOM     22  O   UNL d   1       5.753   0.670   0.040  0.00  0.00    -0.361 OA
ATOM     23  H   UNL d   1       6.281  -0.147   0.047  0.00  0.00     0.217 HD
ENDBRANCH  11  22
TORSDOF 4
