REMARK  1 active torsions:
REMARK  status: ('A' for Active; 'I' for Inactive)
REMARK    1  A    between atoms: C_1  and  C_2 
ROOT
ATOM      1  C   UNL d   1       1.327  -0.129   0.000  0.00  0.00    -0.044 A 
ATOM      2  C   UNL d   1      -0.073  -0.232   0.000  0.00  0.00    -0.018 A 
ATOM      3  C   UNL d   1      -0.855   0.948   0.000  0.00  0.00    -0.019 A 
ATOM      4  C   UNL d   1      -0.212   2.197  -0.000  0.00  0.00    -0.051 A 
ATOM      5  C   UNL d   1       1.949   1.120  -0.000  0.00  0.00     0.009 A 
ATOM      6  C   UNL d   1      -0.716  -1.481   0.000  0.00  0.00     0.019 A 
ATOM      7  C   UNL d   1       1.181   2.281  -0.000  0.00  0.00     0.008 A 
ATOM      8  C   UNL d   1      -2.255   0.845  -0.000  0.00  0.00     0.013 A 
ATOM      9  C   UNL d   1      -2.109  -1.565   0.000  0.00  0.00    -0.061 A 
ATOM     10  C   UNL d   1      -2.877  -0.404   0.000  0.00  0.00     0.007 A 
ATOM     11  C   UNL d   1      -0.977   3.484   0.000  0.00  0.00     0.049 C 
ATOM     12  C   UNL d   1      -2.776  -2.899  -0.000  0.00  0.00     0.048 C 
ENDROOT
BRANCH   1  13
ATOM     13  C   UNL d   1       2.213  -1.336   0.000  0.00  0.00     0.011 C 
ATOM     14  C   UNL d   1       3.091  -1.415   1.260  0.00  0.00     0.015 C 
ATOM     15  C   UNL d   1       3.090  -1.415  -1.260  0.00  0.00     0.015 C 
ENDBRANCH   1  13
TORSDOF 1
