REMARK  4 active torsions:
REMARK  status: ('A' for Active; 'I' for Inactive)
REMARK    1  A    between atoms: C_1  and  C_5 
REMARK    2  A    between atoms: C_5  and  C_8 
REMARK    3  A    between atoms: C_8  and  C_9 
REMARK    4  A    between atoms: C_9  and  C_12 
ROOT
ATOM      1  C   UNL d   1      -0.080   1.613   0.227  0.00  0.00    -0.085 C 
ATOM      2  C   UNL d   1      -0.491   2.886   0.111  0.00  0.00     0.014 C 
ENDROOT
BRANCH   1   3
ATOM      3  C   UNL d   1      -1.048   0.471   0.159  0.00  0.00     0.017 C 
ATOM      4  C   UNL d   1      -2.080   0.548   1.290  0.00  0.00     0.013 C 
ATOM      5  C   UNL d   1      -3.035  -0.649   1.253  0.00  0.00     0.034 C 
ATOM      6  C   UNL d   1      -3.522  -0.993  -0.132  0.00  0.00    -0.087 C 
ATOM      7  C   UNL d   1      -2.945  -0.484  -1.234  0.00  0.00    -0.024 C 
ATOM      8  C   UNL d   1      -4.684  -1.939  -0.209  0.00  0.00     0.043 C 
ATOM      9  C   UNL d   1      -1.758   0.434  -1.205  0.00  0.00     0.036 C 
ENDBRANCH   1   3
BRANCH   1  10
ATOM     10  C   UNL d   1       1.383   1.267   0.392  0.00  0.00     0.037 C 
BRANCH  10  11
ATOM     11  C   UNL d   1       1.963   0.440  -0.763  0.00  0.00     0.031 C 
BRANCH  11  12
ATOM     12  C   UNL d   1       3.440   0.198  -0.610  0.00  0.00    -0.024 C 
ATOM     13  C   UNL d   1       4.059  -0.835  -0.007  0.00  0.00    -0.091 C 
ATOM     14  C   UNL d   1       5.545  -1.014   0.110  0.00  0.00     0.042 C 
ATOM     15  C   UNL d   1       3.252  -1.943   0.617  0.00  0.00     0.042 C 
ENDBRANCH  11  12
ENDBRANCH  10  11
ENDBRANCH   1  10
TORSDOF 4
