REMARK  13 active torsions:
REMARK  status: ('A' for Active; 'I' for Inactive)
REMARK    1  A    between atoms: O_3  and  C_14 
REMARK    2  A    between atoms: O_4  and  C_20 
REMARK    3  A    between atoms: O_5  and  C_21 
REMARK    4  A    between atoms: O_6  and  C_25 
REMARK    5  A    between atoms: O_7  and  C_27 
REMARK    6  A    between atoms: O_8  and  C_34 
REMARK    7  A    between atoms: O_9  and  C_37 
REMARK    8  A    between atoms: O_10  and  C_39 
REMARK    9  A    between atoms: O_11  and  C_40 
REMARK   10  A    between atoms: O_12  and  C_42 
REMARK   11  A    between atoms: C_13  and  C_16 
REMARK   12  A    between atoms: C_15  and  C_26 
REMARK   13  A    between atoms: C_23  and  C_30 
ROOT
ATOM      1  O   UNL d   1      -4.110   0.738  -0.685  0.00  0.00    -0.338 OA
ATOM      2  C   UNL d   1      -1.991   1.139   1.341  0.00  0.00     0.094 C 
ATOM      3  C   UNL d   1      -2.911  -0.099   1.297  0.00  0.00     0.165 C 
ATOM      4  C   UNL d   1      -3.397  -0.377  -0.134  0.00  0.00     0.191 C 
ATOM      5  C   UNL d   1      -2.464   2.205   0.370  0.00  0.00     0.020 A 
ATOM      6  C   UNL d   1      -3.474   1.946  -0.566  0.00  0.00     0.082 A 
ATOM      7  C   UNL d   1      -1.908   3.494   0.424  0.00  0.00     0.078 A 
ATOM      8  C   UNL d   1      -3.926   2.958  -1.419  0.00  0.00     0.074 A 
ATOM      9  C   UNL d   1      -2.350   4.498  -0.439  0.00  0.00     0.073 A 
ATOM     10  C   UNL d   1      -3.360   4.229  -1.359  0.00  0.00     0.071 A 
ENDROOT
BRANCH   2  11
ATOM     11  C   UNL d   1      -0.531   0.739   1.168  0.00  0.00     0.020 A 
ATOM     12  C   UNL d   1       0.052   0.749  -0.099  0.00  0.00     0.084 A 
ATOM     13  C   UNL d   1       1.396   0.387  -0.267  0.00  0.00     0.012 A 
ATOM     14  C   UNL d   1       2.008   0.412  -1.642  0.00  0.00     0.079 C 
ATOM     15  C   UNL d   1       2.138  -0.012   0.852  0.00  0.00     0.081 A 
ATOM     16  C   UNL d   1       3.531   0.323  -1.567  0.00  0.00     0.156 C 
ATOM     17  C   UNL d   1       3.929  -0.727  -0.521  0.00  0.00     0.191 C 
ATOM     18  O   UNL d   1       3.455  -0.386   0.792  0.00  0.00    -0.338 OA
ATOM     19  C   UNL d   1       1.556  -0.008   2.122  0.00  0.00     0.074 A 
ATOM     20  C   UNL d   1       0.222   0.364   2.279  0.00  0.00     0.078 A 
BRANCH  12  21
ATOM     21  O   UNL d   1      -0.698   1.119  -1.179  0.00  0.00    -0.359 OA
ATOM     22  H   UNL d   1      -0.272   0.845  -2.007  0.00  0.00     0.217 HD
ENDBRANCH  12  21
BRANCH  16  23
ATOM     23  O   UNL d   1       4.059   1.600  -1.204  0.00  0.00    -0.392 OA
ATOM     24  H   UNL d   1       5.016   1.584  -1.374  0.00  0.00     0.210 HD
ENDBRANCH  16  23
BRANCH  17  25
ATOM     25  C   UNL d   1       5.431  -0.940  -0.479  0.00  0.00    -0.024 A 
ATOM     26  C   UNL d   1       6.218  -0.178   0.384  0.00  0.00     0.049 A 
ATOM     27  C   UNL d   1       7.599  -0.375   0.423  0.00  0.00     0.099 A 
ATOM     28  C   UNL d   1       8.190  -1.332  -0.402  0.00  0.00     0.098 A 
ATOM     29  C   UNL d   1       7.402  -2.093  -1.264  0.00  0.00     0.040 A 
ATOM     30  C   UNL d   1       6.021  -1.897  -1.303  0.00  0.00     0.013 A 
BRANCH  27  31
ATOM     31  O   UNL d   1       8.358   0.374   1.270  0.00  0.00    -0.358 OA
ATOM     32  H   UNL d   1       7.780   0.983   1.761  0.00  0.00     0.217 HD
ENDBRANCH  27  31
BRANCH  28  33
ATOM     33  O   UNL d   1       9.537  -1.533  -0.373  0.00  0.00    -0.358 OA
ATOM     34  H   UNL d   1       9.767  -2.232  -1.009  0.00  0.00     0.217 HD
ENDBRANCH  28  33
ENDBRANCH  17  25
BRANCH  20  35
ATOM     35  O   UNL d   1      -0.329   0.353   3.525  0.00  0.00    -0.360 OA
ATOM     36  H   UNL d   1       0.343   0.066   4.167  0.00  0.00     0.217 HD
ENDBRANCH  20  35
ENDBRANCH   2  11
BRANCH   3  37
ATOM     37  O   UNL d   1      -4.028   0.135   2.163  0.00  0.00    -0.392 OA
ATOM     38  H   UNL d   1      -3.682   0.224   3.068  0.00  0.00     0.210 HD
ENDBRANCH   3  37
BRANCH   4  39
ATOM     39  C   UNL d   1      -4.264  -1.622  -0.200  0.00  0.00    -0.024 A 
ATOM     40  C   UNL d   1      -3.678  -2.867  -0.419  0.00  0.00     0.049 A 
ATOM     41  C   UNL d   1      -4.474  -4.011  -0.480  0.00  0.00     0.099 A 
ATOM     42  C   UNL d   1      -5.856  -3.907  -0.322  0.00  0.00     0.098 A 
ATOM     43  C   UNL d   1      -6.442  -2.659  -0.103  0.00  0.00     0.040 A 
ATOM     44  C   UNL d   1      -5.645  -1.516  -0.042  0.00  0.00     0.013 A 
BRANCH  41  45
ATOM     45  O   UNL d   1      -3.891  -5.223  -0.694  0.00  0.00    -0.358 OA
ATOM     46  H   UNL d   1      -4.475  -5.928  -0.371  0.00  0.00     0.217 HD
ENDBRANCH  41  45
BRANCH  42  47
ATOM     47  O   UNL d   1      -6.645  -5.016  -0.379  0.00  0.00    -0.358 OA
ATOM     48  H   UNL d   1      -6.186  -5.719  -0.865  0.00  0.00     0.217 HD
ENDBRANCH  42  47
ENDBRANCH   4  39
BRANCH   7  49
ATOM     49  O   UNL d   1      -0.933   3.804   1.328  0.00  0.00    -0.360 OA
ATOM     50  H   UNL d   1      -0.675   4.735   1.215  0.00  0.00     0.217 HD
ENDBRANCH   7  49
BRANCH  10  51
ATOM     51  O   UNL d   1      -3.798   5.209  -2.195  0.00  0.00    -0.361 OA
ATOM     52  H   UNL d   1      -4.500   4.849  -2.764  0.00  0.00     0.217 HD
ENDBRANCH  10  51
TORSDOF 13
