REMARK  7 active torsions:
REMARK  status: ('A' for Active; 'I' for Inactive)
REMARK    1  A    between atoms: O_2  and  C_13 
REMARK    2  A    between atoms: O_3  and  C_15 
REMARK    3  A    between atoms: O_5  and  C_19 
REMARK    4  A    between atoms: O_6  and  C_21 
REMARK    5  A    between atoms: O_7  and  C_22 
REMARK    6  A    between atoms: O_8  and  C_23 
REMARK    7  A    between atoms: C_10  and  C_12 
ROOT
ATOM      1  O   UNL d   1      -0.511  -0.852   0.001  0.00  0.00    -0.306 OA
ATOM      2  O   UNL d   1      -2.268   2.825  -0.016  0.00  0.00    -0.284 OA
ATOM      3  C   UNL d   1      -2.539   0.482  -0.000  0.00  0.00     0.084 A 
ATOM      4  C   UNL d   1       0.244   0.311   0.008  0.00  0.00     0.123 A 
ATOM      5  C   UNL d   1      -1.878  -0.744   0.003  0.00  0.00     0.096 A 
ATOM      6  C   UNL d   1      -0.270   1.554  -0.004  0.00  0.00     0.152 A 
ATOM      7  C   UNL d   1      -1.744   1.720  -0.007  0.00  0.00     0.223 A 
ATOM      8  C   UNL d   1      -3.935   0.531   0.001  0.00  0.00     0.085 A 
ATOM      9  C   UNL d   1      -2.610  -1.931   0.007  0.00  0.00     0.075 A 
ATOM     10  C   UNL d   1      -4.004  -1.887   0.008  0.00  0.00     0.071 A 
ATOM     11  C   UNL d   1      -4.665  -0.658   0.005  0.00  0.00     0.074 A 
ENDROOT
BRANCH   4  12
ATOM     12  C   UNL d   1       1.695   0.053   0.005  0.00  0.00     0.006 A 
ATOM     13  C   UNL d   1       2.387  -0.054   1.211  0.00  0.00     0.054 A 
ATOM     14  C   UNL d   1       3.760  -0.300   1.209  0.00  0.00     0.102 A 
ATOM     15  C   UNL d   1       4.442  -0.438   0.000  0.00  0.00     0.132 A 
ATOM     16  C   UNL d   1       3.750  -0.330  -1.206  0.00  0.00     0.102 A 
ATOM     17  C   UNL d   1       2.377  -0.085  -1.204  0.00  0.00     0.054 A 
BRANCH  14  18
ATOM     18  O   UNL d   1       4.423  -0.402   2.395  0.00  0.00    -0.358 OA
ATOM     19  H   UNL d   1       5.366  -0.214   2.259  0.00  0.00     0.217 HD
ENDBRANCH  14  18
BRANCH  15  20
ATOM     20  O   UNL d   1       5.784  -0.679  -0.002  0.00  0.00    -0.356 OA
ATOM     21  H   UNL d   1       6.045  -1.081   0.842  0.00  0.00     0.218 HD
ENDBRANCH  15  20
BRANCH  16  22
ATOM     22  O   UNL d   1       4.405  -0.464  -2.394  0.00  0.00    -0.358 OA
ATOM     23  H   UNL d   1       5.345  -0.630  -2.208  0.00  0.00     0.217 HD
ENDBRANCH  16  22
ENDBRANCH   4  12
BRANCH   6  24
ATOM     24  O   UNL d   1       0.510   2.690  -0.030  0.00  0.00    -0.355 OA
ATOM     25  H   UNL d   1       1.449   2.446  -0.029  0.00  0.00     0.218 HD
ENDBRANCH   6  24
BRANCH   8  26
ATOM     26  O   UNL d   1      -4.630   1.703  -0.003  0.00  0.00    -0.360 OA
ATOM     27  H   UNL d   1      -4.023   2.458  -0.002  0.00  0.00     0.217 HD
ENDBRANCH   8  26
BRANCH  10  28
ATOM     28  O   UNL d   1      -4.721  -3.045   0.013  0.00  0.00    -0.361 OA
ATOM     29  H   UNL d   1      -5.669  -2.828   0.013  0.00  0.00     0.217 HD
ENDBRANCH  10  28
TORSDOF 7
