REMARK  0 active torsions:
REMARK  status: ('A' for Active; 'I' for Inactive)
ROOT
ATOM      1  O   UNL d   1      -1.058   1.127   0.000  0.00  0.00    -0.275 OA
ATOM      2  O   UNL d   1      -3.319   0.764  -0.001  0.00  0.00    -0.260 OA
ATOM      3  C   UNL d   1       0.448  -0.786  -0.000  0.00  0.00    -0.002 A 
ATOM      4  C   UNL d   1       0.247   0.592   0.000  0.00  0.00     0.089 A 
ATOM      5  C   UNL d   1       1.755  -1.278  -0.000  0.00  0.00     0.014 A 
ATOM      6  C   UNL d   1      -0.711  -1.663   0.000  0.00  0.00     0.020 A 
ATOM      7  C   UNL d   1       1.314   1.488   0.000  0.00  0.00     0.038 A 
ATOM      8  C   UNL d   1       2.835  -0.391  -0.000  0.00  0.00     0.001 A 
ATOM      9  C   UNL d   1       2.615   0.989   0.000  0.00  0.00     0.003 A 
ATOM     10  C   UNL d   1      -1.943  -1.148   0.000  0.00  0.00     0.083 A 
ATOM     11  C   UNL d   1      -2.182   0.307  -0.000  0.00  0.00     0.288 A 
ENDROOT
TORSDOF 0
