REMARK  8 active torsions:
REMARK  status: ('A' for Active; 'I' for Inactive)
REMARK    1  A    between atoms: O_1  and  C_6 
REMARK    2  A    between atoms: O_2  and  C_7 
REMARK    3  A    between atoms: O_3  and  C_8 
REMARK    4  A    between atoms: O_4  and  C_9 
REMARK    5  A    between atoms: C_6  and  C_7 
REMARK    6  A    between atoms: C_6  and  C_8 
REMARK    7  A    between atoms: C_7  and  C_9 
REMARK    8  A    between atoms: C_8  and  C_10 
ROOT
ATOM      1  C   UNL d   1       0.046  -0.324  -0.419  0.00  0.00     0.184 C 
ENDROOT
BRANCH   1   2
ATOM      2  O   UNL d   1       0.271  -1.597   0.190  0.00  0.00    -0.390 OA
ATOM      3  H   UNL d   1       0.369  -1.451   1.147  0.00  0.00     0.210 HD
ENDBRANCH   1   2
BRANCH   1   4
ATOM      4  C   UNL d   1      -1.291   0.236   0.090  0.00  0.00     0.173 C 
BRANCH   4   5
ATOM      5  O   UNL d   1      -1.575   1.474  -0.559  0.00  0.00    -0.391 OA
ATOM      6  H   UNL d   1      -1.623   1.305  -1.516  0.00  0.00     0.210 HD
ENDBRANCH   4   5
BRANCH   4   7
ATOM      7  C   UNL d   1      -2.454  -0.725  -0.166  0.00  0.00     0.198 C 
BRANCH   7   8
ATOM      8  O   UNL d   1      -3.648  -0.154   0.359  0.00  0.00    -0.398 OA
ATOM      9  H   UNL d   1      -3.776   0.705  -0.078  0.00  0.00     0.209 HD
ENDBRANCH   7   8
ENDBRANCH   4   7
ENDBRANCH   1   4
BRANCH   1  10
ATOM     10  C   UNL d   1       1.252   0.591  -0.165  0.00  0.00     0.210 C 
BRANCH  10  11
ATOM     11  O   UNL d   1       1.353   0.826   1.232  0.00  0.00    -0.386 OA
ATOM     12  H   UNL d   1       2.043   1.497   1.366  0.00  0.00     0.210 HD
ENDBRANCH  10  11
BRANCH  10  13
ATOM     13  C   UNL d   1       2.553  -0.019  -0.647  0.00  0.00     0.265 C 
ATOM     14  O   UNL d   1       3.493  -0.307   0.086  0.00  0.00    -0.304 OA
ENDBRANCH  10  13
ENDBRANCH   1  10
TORSDOF 8
