REMARK  1 active torsions:
REMARK  status: ('A' for Active; 'I' for Inactive)
REMARK    1  A    between atoms: O_1  and  C_18 
ROOT
ATOM      1  C   UNL d   1      -1.210   0.451   0.232  0.00  0.00     0.006 C 
ATOM      2  C   UNL d   1      -2.770   0.611   0.490  0.00  0.00    -0.035 C 
ATOM      3  C   UNL d   1      -0.590  -0.949   0.556  0.00  0.00    -0.016 C 
ATOM      4  C   UNL d   1       1.732   0.294   0.011  0.00  0.00    -0.016 C 
ATOM      5  C   UNL d   1      -3.494  -0.512  -0.339  0.00  0.00     0.004 C 
ATOM      6  C   UNL d   1       3.193  -0.082   0.514  0.00  0.00     0.007 C 
ATOM      7  C   UNL d   1       0.876  -0.995   0.024  0.00  0.00    -0.066 C 
ATOM      8  C   UNL d   1      -0.371   1.630   0.767  0.00  0.00     0.007 C 
ATOM      9  C   UNL d   1      -1.468  -2.036  -0.139  0.00  0.00     0.014 C 
ATOM     10  C   UNL d   1       3.858  -1.327  -0.178  0.00  0.00    -0.036 C 
ATOM     11  C   UNL d   1       1.113   1.334   0.979  0.00  0.00     0.014 C 
ATOM     12  C   UNL d   1      -5.061  -0.389  -0.455  0.00  0.00    -0.017 C 
ATOM     13  C   UNL d   1      -2.980  -1.905   0.068  0.00  0.00     0.007 C 
ATOM     14  C   UNL d   1      -3.232   1.991  -0.064  0.00  0.00     0.012 C 
ATOM     15  C   UNL d   1       4.184   1.087   0.792  0.00  0.00     0.015 C 
ATOM     16  C   UNL d   1       2.837  -2.213  -0.938  0.00  0.00     0.037 C 
ATOM     17  C   UNL d   1      -5.408   1.046  -0.956  0.00  0.00     0.126 C 
ATOM     18  C   UNL d   1      -3.099   0.565   2.004  0.00  0.00     0.016 C 
ATOM     19  C   UNL d   1      -0.528  -1.278   2.066  0.00  0.00     0.020 C 
ATOM     20  C   UNL d   1       1.442  -2.139  -0.411  0.00  0.00    -0.022 C 
ATOM     21  C   UNL d   1      -4.746   2.155  -0.146  0.00  0.00     0.033 C 
ATOM     22  C   UNL d   1       4.973  -0.951  -1.181  0.00  0.00     0.010 C 
ATOM     23  C   UNL d   1       5.361   1.348  -0.177  0.00  0.00    -0.047 C 
ATOM     24  C   UNL d   1       1.746   0.899  -1.406  0.00  0.00     0.020 C 
ATOM     25  C   UNL d   1       5.999   0.029  -0.631  0.00  0.00     0.009 C 
ATOM     26  C   UNL d   1       4.491  -2.203   0.942  0.00  0.00     0.016 C 
ATOM     27  C   UNL d   1      -5.581  -1.397  -1.518  0.00  0.00     0.018 C 
ATOM     28  C   UNL d   1      -5.813  -0.723   0.849  0.00  0.00     0.018 C 
ATOM     29  C   UNL d   1       4.928   2.185  -1.394  0.00  0.00     0.015 C 
ATOM     30  C   UNL d   1       6.431   2.178   0.571  0.00  0.00     0.015 C 
ENDROOT
BRANCH  17  31
ATOM     31  O   UNL d   1      -6.814   1.291  -0.932  0.00  0.00    -0.395 OA
ATOM     32  H   UNL d   1      -6.968   2.170  -1.321  0.00  0.00     0.210 HD
ENDBRANCH  17  31
TORSDOF 1
