REMARK  12 active torsions:
REMARK  status: ('A' for Active; 'I' for Inactive)
REMARK    1  A    between atoms: O_2  and  C_17 
REMARK    2  A    between atoms: O_2  and  C_19 
REMARK    3  A    between atoms: O_3  and  C_13 
REMARK    4  A    between atoms: O_4  and  C_14 
REMARK    5  A    between atoms: O_5  and  C_15 
REMARK    6  A    between atoms: O_6  and  C_18 
REMARK    7  A    between atoms: O_9  and  C_25 
REMARK    8  A    between atoms: O_10  and  C_30 
REMARK    9  A    between atoms: O_11  and  C_31 
REMARK   10  A    between atoms: O_12  and  C_33 
REMARK   11  A    between atoms: C_16  and  C_18 
REMARK   12  A    between atoms: C_20  and  C_24 
ROOT
ATOM      1  O   UNL d   1       1.947  -1.753  -0.167  0.00  0.00    -0.306 OA
ATOM      2  O   UNL d   1       1.663   2.053   1.259  0.00  0.00    -0.284 OA
ATOM      3  C   UNL d   1       0.581   0.002   0.781  0.00  0.00     0.157 A 
ATOM      4  C   UNL d   1       0.744  -1.241   0.292  0.00  0.00     0.124 A 
ATOM      5  C   UNL d   1       1.751   0.912   0.826  0.00  0.00     0.223 A 
ATOM      6  C   UNL d   1       3.021   0.367   0.323  0.00  0.00     0.084 A 
ATOM      7  C   UNL d   1       3.053  -0.943  -0.149  0.00  0.00     0.096 A 
ATOM      8  C   UNL d   1       4.181   1.146   0.319  0.00  0.00     0.085 A 
ATOM      9  C   UNL d   1       4.246  -1.484  -0.628  0.00  0.00     0.075 A 
ATOM     10  C   UNL d   1       5.373   0.603  -0.161  0.00  0.00     0.074 A 
ATOM     11  C   UNL d   1       5.406  -0.709  -0.634  0.00  0.00     0.071 A 
ENDROOT
BRANCH   3  12
ATOM     12  O   UNL d   1      -0.623   0.470   1.261  0.00  0.00    -0.311 OA
BRANCH  12  13
ATOM     13  C   UNL d   1      -1.396   1.084   0.230  0.00  0.00     0.298 C 
ATOM     14  O   UNL d   1      -1.068   2.470   0.141  0.00  0.00    -0.348 OA
ATOM     15  C   UNL d   1      -1.814   3.160  -0.869  0.00  0.00     0.179 C 
ATOM     16  C   UNL d   1      -3.309   3.111  -0.538  0.00  0.00     0.180 C 
ATOM     17  C   UNL d   1      -3.763   1.657  -0.406  0.00  0.00     0.183 C 
ATOM     18  C   UNL d   1      -2.875   0.891   0.574  0.00  0.00     0.205 C 
BRANCH  15  19
ATOM     19  C   UNL d   1      -1.280   4.587  -0.933  0.00  0.00     0.198 C 
BRANCH  19  20
ATOM     20  O   UNL d   1       0.103   4.539  -1.232  0.00  0.00    -0.398 OA
ATOM     21  H   UNL d   1       0.536   4.013  -0.538  0.00  0.00     0.209 HD
ENDBRANCH  19  20
ENDBRANCH  15  19
BRANCH  16  22
ATOM     22  O   UNL d   1      -3.536   3.797   0.696  0.00  0.00    -0.390 OA
ATOM     23  H   UNL d   1      -4.482   3.714   0.903  0.00  0.00     0.210 HD
ENDBRANCH  16  22
BRANCH  17  24
ATOM     24  O   UNL d   1      -5.114   1.603   0.044  0.00  0.00    -0.390 OA
ATOM     25  H   UNL d   1      -5.354   0.665   0.132  0.00  0.00     0.210 HD
ENDBRANCH  17  24
BRANCH  18  26
ATOM     26  O   UNL d   1      -3.181  -0.501   0.496  0.00  0.00    -0.388 OA
ATOM     27  H   UNL d   1      -2.707  -0.938   1.224  0.00  0.00     0.210 HD
ENDBRANCH  18  26
ENDBRANCH  12  13
ENDBRANCH   3  12
BRANCH   4  28
ATOM     28  C   UNL d   1      -0.361  -2.214   0.219  0.00  0.00     0.004 A 
ATOM     29  C   UNL d   1      -1.161  -2.276  -0.923  0.00  0.00     0.053 A 
ATOM     30  C   UNL d   1      -2.206  -3.197  -0.993  0.00  0.00     0.099 A 
ATOM     31  C   UNL d   1      -2.452  -4.056   0.079  0.00  0.00     0.098 A 
ATOM     32  C   UNL d   1      -1.652  -3.994   1.220  0.00  0.00     0.040 A 
ATOM     33  C   UNL d   1      -0.607  -3.073   1.290  0.00  0.00     0.017 A 
BRANCH  30  34
ATOM     34  O   UNL d   1      -2.981  -3.248  -2.112  0.00  0.00    -0.358 OA
ATOM     35  H   UNL d   1      -3.654  -3.940  -1.987  0.00  0.00     0.217 HD
ENDBRANCH  30  34
BRANCH  31  36
ATOM     36  O   UNL d   1      -3.469  -4.960   0.022  0.00  0.00    -0.358 OA
ATOM     37  H   UNL d   1      -3.488  -5.468   0.852  0.00  0.00     0.217 HD
ENDBRANCH  31  36
ENDBRANCH   4  28
BRANCH   8  38
ATOM     38  O   UNL d   1       4.204   2.431   0.770  0.00  0.00    -0.360 OA
ATOM     39  H   UNL d   1       3.323   2.704   1.069  0.00  0.00     0.217 HD
ENDBRANCH   8  38
BRANCH  11  40
ATOM     40  O   UNL d   1       6.572  -1.235  -1.098  0.00  0.00    -0.361 OA
ATOM     41  H   UNL d   1       6.414  -2.151  -1.384  0.00  0.00     0.217 HD
ENDBRANCH  11  40
TORSDOF 12
