REMARK  0 active torsions:
REMARK  status: ('A' for Active; 'I' for Inactive)
ROOT
ATOM      1  O   UNL d   1       0.622   2.108  -0.472  0.00  0.00    -0.293 OA
ATOM      2  C   UNL d   1      -2.224  -0.099  -0.199  0.00  0.00    -0.011 C 
ATOM      3  C   UNL d   1      -1.498  -1.413   0.118  0.00  0.00     0.009 C 
ATOM      4  C   UNL d   1      -1.414   1.103   0.295  0.00  0.00     0.088 C 
ATOM      5  C   UNL d   1      -0.126  -1.451  -0.552  0.00  0.00     0.043 C 
ATOM      6  C   UNL d   1       0.701  -0.254  -0.198  0.00  0.00    -0.011 C 
ATOM      7  C   UNL d   1       0.023   1.075  -0.183  0.00  0.00     0.156 C 
ATOM      8  C   UNL d   1      -3.621  -0.093   0.420  0.00  0.00     0.010 C 
ATOM      9  C   UNL d   1       1.999  -0.305   0.128  0.00  0.00    -0.078 C 
ATOM     10  C   UNL d   1       2.765  -1.595   0.141  0.00  0.00     0.043 C 
ATOM     11  C   UNL d   1       2.773   0.925   0.503  0.00  0.00     0.043 C 
ENDROOT
TORSDOF 0
