REMARK  18 active torsions:
REMARK  status: ('A' for Active; 'I' for Inactive)
REMARK    1  A    between atoms: P_1  and  O_9 
REMARK    2  A    between atoms: P_1  and  O_11 
REMARK    3  A    between atoms: P_1  and  O_12 
REMARK    4  A    between atoms: P_2  and  O_10 
REMARK    5  A    between atoms: P_2  and  O_11 
REMARK    6  A    between atoms: P_2  and  O_13 
REMARK    7  A    between atoms: O_5  and  C_28 
REMARK    8  A    between atoms: O_6  and  C_29 
REMARK    9  A    between atoms: O_7  and  C_32 
REMARK   10  A    between atoms: O_8  and  C_34 
REMARK   11  A    between atoms: O_9  and  C_36 
REMARK   12  A    between atoms: O_10  and  C_37 
REMARK   13  A    between atoms: N_17  and  C_31 
REMARK   14  A    between atoms: N_26  and  C_43 
REMARK       I    between atoms: N_27  and  C_48 
REMARK   15  A    between atoms: C_30  and  C_36 
REMARK   16  A    between atoms: C_33  and  C_37 
REMARK   17  A    between atoms: C_35  and  C_38 
REMARK   18  A    between atoms: C_45  and  C_48 
ROOT
ATOM      1  P   UNL d   1       2.439  -2.988   1.717  0.00  0.00     0.401 P 
ATOM      2  O   UNL d   1       3.932  -3.022   1.875  0.00  0.00    -0.631 OA
ENDROOT
BRANCH   1   3
ATOM      3  O   UNL d   1       1.664  -1.888   2.614  0.00  0.00    -0.294 OA
BRANCH   3   4
ATOM      4  C   UNL d   1       0.358  -1.497   2.226  0.00  0.00     0.215 C 
BRANCH   4   5
ATOM      5  C   UNL d   1      -0.163  -0.462   3.212  0.00  0.00     0.180 C 
ATOM      6  O   UNL d   1       0.702   0.696   3.159  0.00  0.00    -0.353 OA
ATOM      7  C   UNL d   1      -0.046   1.812   2.639  0.00  0.00     0.262 C 
ATOM      8  C   UNL d   1      -1.280   1.221   1.974  0.00  0.00     0.198 C 
ATOM      9  C   UNL d   1      -1.566   0.032   2.870  0.00  0.00     0.182 C 
BRANCH   7  10
ATOM     10  N   UNL d   1       0.797   2.595   1.739  0.00  0.00    -0.297 N 
ATOM     11  C   UNL d   1       1.788   2.123   0.926  0.00  0.00     0.142 A 
ATOM     12  N   UNL d   1       2.193   0.852   0.783  0.00  0.00    -0.336 N 
ATOM     13  C   UNL d   1       2.289   3.240   0.278  0.00  0.00     0.122 A 
ATOM     14  C   UNL d   1       3.200   0.775  -0.114  0.00  0.00     0.183 A 
ATOM     15  HN  UNL d   1       1.795   0.055   1.281  1.00  0.00     0.168 HD
ATOM     16  N   UNL d   1       3.788   1.772  -0.819  0.00  0.00    -0.337 N 
ATOM     17  C   UNL d   1       3.328   3.031  -0.624  0.00  0.00     0.131 A 
ATOM     18  HN  UNL d   1       4.548   1.581  -1.472  1.00  0.00     0.168 HD
ATOM     19  N   UNL d   1       1.625   4.372   0.678  0.00  0.00    -0.346 N 
ATOM     20  C   UNL d   1       0.737   3.951   1.554  0.00  0.00     0.188 A 
ATOM     21  HN  UNL d   1       1.785   5.330   0.366  1.00  0.00     0.167 HD
BRANCH  17  22
ATOM     22  N   UNL d   1       3.898   4.108  -1.325  0.00  0.00    -0.383 N 
ATOM     23  H   UNL d   1       3.557   5.049  -1.181  0.00  0.00     0.157 HD
ATOM     24  H   UNL d   1       4.652   3.931  -1.974  0.00  0.00     0.157 HD
ENDBRANCH  17  22
ENDBRANCH   7  10
BRANCH   8  25
ATOM     25  O   UNL d   1      -2.347   2.146   1.925  0.00  0.00    -0.388 OA
ATOM     26  H   UNL d   1      -3.146   1.658   1.663  0.00  0.00     0.210 HD
ENDBRANCH   8  25
BRANCH   9  27
ATOM     27  O   UNL d   1      -2.200   0.480   4.068  0.00  0.00    -0.390 OA
ATOM     28  H   UNL d   1      -2.325  -0.297   4.639  0.00  0.00     0.210 HD
ENDBRANCH   9  27
ENDBRANCH   4   5
ENDBRANCH   3   4
ENDBRANCH   1   3
BRANCH   1  29
ATOM     29  O   UNL d   1       1.928  -2.662   0.219  0.00  0.00    -0.195 OA
BRANCH  29  30
ATOM     30  P   UNL d   1       2.479  -3.150  -1.220  0.00  0.00     0.401 P 
ATOM     31  O   UNL d   1       3.976  -3.196  -1.323  0.00  0.00    -0.631 OA
BRANCH  30  32
ATOM     32  O   UNL d   1       1.757  -2.170  -2.286  0.00  0.00    -0.294 OA
BRANCH  32  33
ATOM     33  C   UNL d   1       0.345  -2.043  -2.288  0.00  0.00     0.215 C 
BRANCH  33  34
ATOM     34  C   UNL d   1      -0.063  -1.066  -3.382  0.00  0.00     0.178 C 
ATOM     35  O   UNL d   1      -1.499  -0.910  -3.337  0.00  0.00    -0.367 OA
ATOM     36  C   UNL d   1      -1.824   0.422  -2.890  0.00  0.00     0.203 C 
ATOM     37  C   UNL d   1      -0.530   1.006  -2.335  0.00  0.00     0.184 C 
ATOM     38  C   UNL d   1       0.524   0.326  -3.188  0.00  0.00     0.180 C 
BRANCH  36  39
ATOM     39  C   UNL d   1      -2.946   0.409  -1.877  0.00  0.00     0.041 A 
ATOM     40  N   UNL d   1      -3.019  -0.671  -1.068  0.00  0.00    -0.353 N 
ATOM     41  C   UNL d   1      -4.024  -0.677  -0.163  0.00  0.00     0.100 A 
ATOM     42  HN  UNL d   1      -2.352  -1.440  -1.136  1.00  0.00     0.166 HD
ATOM     43  C   UNL d   1      -4.954   0.341  -0.031  0.00  0.00     0.035 A 
ATOM     44  C   UNL d   1      -4.847   1.435  -0.882  0.00  0.00     0.004 A 
ATOM     45  C   UNL d   1      -3.827   1.478  -1.826  0.00  0.00     0.028 A 
BRANCH  41  46
ATOM     46  C   UNL d   1      -4.088  -1.844   0.700  0.00  0.00     0.266 C 
ATOM     47  O   UNL d   1      -4.979  -1.968   1.559  0.00  0.00    -0.266 OA
ATOM     48  N   UNL d   1      -3.127  -2.836   0.523  0.00  0.00    -0.365 N 
ATOM     49  H   UNL d   1      -3.130  -3.674   1.096  0.00  0.00     0.159 HD
ATOM     50  H   UNL d   1      -2.394  -2.758  -0.174  0.00  0.00     0.159 HD
ENDBRANCH  41  46
ENDBRANCH  36  39
BRANCH  37  51
ATOM     51  O   UNL d   1      -0.497   2.415  -2.442  0.00  0.00    -0.390 OA
ATOM     52  H   UNL d   1       0.391   2.707  -2.172  0.00  0.00     0.210 HD
ENDBRANCH  37  51
BRANCH  38  53
ATOM     53  O   UNL d   1       0.642   0.970  -4.456  0.00  0.00    -0.390 OA
ATOM     54  H   UNL d   1       1.300   0.473  -4.973  0.00  0.00     0.210 HD
ENDBRANCH  38  53
ENDBRANCH  33  34
ENDBRANCH  32  33
ENDBRANCH  30  32
BRANCH  30  55
ATOM     55  O   UNL d   1       1.752  -4.580  -1.430  0.00  0.00    -0.307 OA
ATOM     56  H   UNL d   1       2.114  -5.368  -0.971  0.00  0.00     0.222 HD
ENDBRANCH  30  55
ENDBRANCH  29  30
ENDBRANCH   1  29
BRANCH   1  57
ATOM     57  O   UNL d   1       1.684  -4.375   2.065  0.00  0.00    -0.307 OA
ATOM     58  H   UNL d   1       0.714  -4.439   1.934  0.00  0.00     0.222 HD
ENDBRANCH   1  57
TORSDOF 18
