REMARK  2 active torsions:
REMARK  status: ('A' for Active; 'I' for Inactive)
REMARK    1  A    between atoms: O_1  and  C_4 
REMARK    2  A    between atoms: C_5  and  C_12 
ROOT
ATOM      1  C   UNL d   1      -0.974  -1.097  -0.141  0.00  0.00    -0.034 C 
ATOM      2  C   UNL d   1      -0.752   0.351   0.402  0.00  0.00     0.051 C 
ATOM      3  C   UNL d   1       0.656   0.895   0.057  0.00  0.00     0.131 C 
ATOM      4  C   UNL d   1       1.774  -0.061   0.526  0.00  0.00     0.018 C 
ATOM      5  C   UNL d   1       0.166  -2.013   0.367  0.00  0.00     0.010 C 
ATOM      6  C   UNL d   1       1.559  -1.491   0.021  0.00  0.00     0.008 C 
ATOM      7  C   UNL d   1      -2.323  -1.642   0.410  0.00  0.00     0.010 C 
ATOM      8  C   UNL d   1      -1.944   1.224   0.017  0.00  0.00    -0.082 C 
ATOM      9  C   UNL d   1      -3.517  -0.725   0.125  0.00  0.00     0.005 C 
ATOM     10  C   UNL d   1      -1.007  -1.143  -1.689  0.00  0.00     0.016 C 
ATOM     11  C   UNL d   1      -3.259   0.717   0.564  0.00  0.00     0.034 C 
ATOM     12  C   UNL d   1      -1.899   2.329  -0.744  0.00  0.00     0.015 C 
ENDROOT
BRANCH   4  13
ATOM     13  C   UNL d   1       3.154   0.447   0.098  0.00  0.00    -0.016 C 
ATOM     14  C   UNL d   1       4.252  -0.423   0.702  0.00  0.00     0.010 C 
ATOM     15  C   UNL d   1       3.263   0.476  -1.423  0.00  0.00     0.010 C 
ENDBRANCH   4  13
BRANCH   3  16
ATOM     16  O   UNL d   1       0.849   2.155   0.709  0.00  0.00    -0.394 OA
ATOM     17  H   UNL d   1       0.770   2.013   1.667  0.00  0.00     0.210 HD
ENDBRANCH   3  16
TORSDOF 2
