REMARK  1 active torsions:
REMARK  status: ('A' for Active; 'I' for Inactive)
REMARK    1  A    between atoms: C_1  and  C_2 
ROOT
ATOM      1  C   UNL d   1       0.683  -0.203   0.000  0.00  0.00    -0.055 A 
ATOM      2  C   UNL d   1       0.113   1.070  -0.000  0.00  0.00     0.008 A 
ATOM      3  C   UNL d   1      -0.135  -1.333   0.000  0.00  0.00     0.008 A 
ATOM      4  C   UNL d   1      -2.092   0.083  -0.000  0.00  0.00    -0.062 A 
ATOM      5  C   UNL d   1      -1.275   1.213  -0.000  0.00  0.00     0.007 A 
ATOM      6  C   UNL d   1      -1.523  -1.190   0.000  0.00  0.00     0.007 A 
ATOM      7  C   UNL d   1      -3.576   0.236   0.000  0.00  0.00     0.048 C 
ENDROOT
BRANCH   1   8
ATOM      8  C   UNL d   1       2.166  -0.356   0.000  0.00  0.00     0.010 C 
ATOM      9  C   UNL d   1       2.820   0.241   1.260  0.00  0.00     0.015 C 
ATOM     10  C   UNL d   1       2.820   0.241  -1.260  0.00  0.00     0.015 C 
ENDBRANCH   1   8
TORSDOF 1
