REMARK  3 active torsions:
REMARK  status: ('A' for Active; 'I' for Inactive)
REMARK    1  A    between atoms: C_1  and  C_3 
REMARK    2  A    between atoms: C_1  and  C_4 
REMARK    3  A    between atoms: C_5  and  C_9 
ROOT
ATOM      1  C   UNL d   1      -0.571  -0.796  -1.097  0.00  0.00     0.055 C 
ENDROOT
BRANCH   1   2
ATOM      2  C   UNL d   1      -1.821  -0.890  -0.269  0.00  0.00    -0.021 C 
ATOM      3  C   UNL d   1      -2.581   0.113   0.212  0.00  0.00    -0.091 C 
ATOM      4  C   UNL d   1      -3.825  -0.053   1.037  0.00  0.00     0.042 C 
ATOM      5  C   UNL d   1      -2.213   1.546  -0.068  0.00  0.00     0.042 C 
ENDBRANCH   1   2
BRANCH   1   6
ATOM      6  C   UNL d   1       0.663  -0.910  -0.244  0.00  0.00    -0.016 C 
ATOM      7  C   UNL d   1       1.724  -0.078  -0.188  0.00  0.00    -0.066 C 
ATOM      8  C   UNL d   1       1.841   1.190  -0.992  0.00  0.00     0.048 C 
BRANCH   7   9
ATOM      9  C   UNL d   1       2.828  -0.411   0.711  0.00  0.00    -0.004 C 
ATOM     10  C   UNL d   1       3.954   0.290   0.898  0.00  0.00     0.012 C 
ENDBRANCH   7   9
ENDBRANCH   1   6
TORSDOF 3
