REMARK  4 active torsions:
REMARK  status: ('A' for Active; 'I' for Inactive)
REMARK    1  A    between atoms: O_1  and  C_9 
REMARK    2  A    between atoms: O_2  and  C_12 
REMARK    3  A    between atoms: C_4  and  C_10 
REMARK    4  A    between atoms: C_11  and  C_12 
ROOT
ATOM      1  C   UNL d   1       0.343  -0.289   0.070  0.00  0.00    -0.036 A 
ATOM      2  C   UNL d   1       0.843   1.006   0.202  0.00  0.00     0.014 A 
ATOM      3  C   UNL d   1       1.219  -1.360  -0.110  0.00  0.00     0.014 A 
ATOM      4  C   UNL d   1       2.219   1.231   0.152  0.00  0.00     0.037 A 
ATOM      5  C   UNL d   1       2.594  -1.135  -0.159  0.00  0.00     0.037 A 
ATOM      6  C   UNL d   1       3.095   0.160  -0.028  0.00  0.00     0.065 A 
ENDROOT
BRANCH   1   7
ATOM      7  C   UNL d   1      -1.091  -0.524   0.120  0.00  0.00     0.018 C 
ATOM      8  C   UNL d   1      -2.044   0.411  -0.093  0.00  0.00     0.082 C 
BRANCH   8   9
ATOM      9  C   UNL d   1      -3.472   0.042  -0.023  0.00  0.00     0.165 C 
ATOM     10  O   UNL d   1      -3.924  -1.063   0.228  0.00  0.00    -0.647 OA
BRANCH   9  11
ATOM     11  O   UNL d   1      -4.218   1.141  -0.283  0.00  0.00    -0.773 OA
ATOM     12  H   UNL d   1      -5.179   0.950  -0.249  0.00  0.00     0.167 HD
ENDBRANCH   9  11
ENDBRANCH   8   9
ENDBRANCH   1   7
BRANCH   6  13
ATOM     13  O   UNL d   1       4.437   0.380  -0.076  0.00  0.00    -0.361 OA
ATOM     14  H   UNL d   1       4.604   1.332   0.031  0.00  0.00     0.217 HD
ENDBRANCH   6  13
TORSDOF 4
