REMARK  5 active torsions:
REMARK  status: ('A' for Active; 'I' for Inactive)
REMARK    1  A    between atoms: O_1  and  C_11 
REMARK    2  A    between atoms: C_2  and  C_3 
REMARK    3  A    between atoms: C_2  and  C_4 
REMARK    4  A    between atoms: C_3  and  C_5 
REMARK    5  A    between atoms: C_8  and  C_11 
ROOT
ATOM      1  C   UNL d   1       0.743  -1.285  -1.127  0.00  0.00     0.037 C 
ENDROOT
BRANCH   1   2
ATOM      2  C   UNL d   1      -0.782  -1.171  -1.248  0.00  0.00     0.031 C 
BRANCH   2   3
ATOM      3  C   UNL d   1      -1.291   0.193  -0.872  0.00  0.00    -0.024 C 
ATOM      4  C   UNL d   1      -2.235   0.506   0.036  0.00  0.00    -0.091 C 
ATOM      5  C   UNL d   1      -2.618   1.944   0.269  0.00  0.00     0.042 C 
ATOM      6  C   UNL d   1      -2.975  -0.478   0.896  0.00  0.00     0.042 C 
ENDBRANCH   2   3
ENDBRANCH   1   2
BRANCH   1   7
ATOM      7  C   UNL d   1       1.266  -1.017   0.269  0.00  0.00    -0.085 C 
ATOM      8  C   UNL d   1       0.784  -1.974   1.328  0.00  0.00     0.043 C 
ATOM      9  C   UNL d   1       2.124  -0.030   0.593  0.00  0.00     0.001 C 
BRANCH   9  10
ATOM     10  C   UNL d   1       2.702   1.018  -0.304  0.00  0.00     0.191 C 
BRANCH  10  11
ATOM     11  O   UNL d   1       2.283   2.294   0.161  0.00  0.00    -0.397 OA
ATOM     12  H   UNL d   1       1.317   2.341   0.060  0.00  0.00     0.209 HD
ENDBRANCH  10  11
ENDBRANCH   9  10
ENDBRANCH   1   7
TORSDOF 5
