REMARK  6 active torsions:
REMARK  status: ('A' for Active; 'I' for Inactive)
REMARK    1  A    between atoms: O_1  and  C_7 
REMARK    2  A    between atoms: O_2  and  C_9 
REMARK    3  A    between atoms: O_3  and  C_10 
REMARK    4  A    between atoms: C_5  and  C_6 
REMARK    5  A    between atoms: C_6  and  C_11 
REMARK    6  A    between atoms: C_8  and  C_14 
ROOT
ATOM      1  C   UNL d   1      -0.400   0.828  -0.491  0.00  0.00     0.013 A 
ATOM      2  C   UNL d   1       0.368  -0.312  -0.298  0.00  0.00     0.094 A 
ATOM      3  C   UNL d   1       1.696  -0.186   0.112  0.00  0.00     0.076 A 
ATOM      4  C   UNL d   1       0.134   2.092  -0.281  0.00  0.00     0.077 A 
ATOM      5  C   UNL d   1       2.242   1.080   0.325  0.00  0.00     0.085 A 
ATOM      6  C   UNL d   1       1.461   2.219   0.129  0.00  0.00     0.074 A 
ENDROOT
BRANCH   1   7
ATOM      7  C   UNL d   1      -1.836   0.694  -0.933  0.00  0.00     0.072 C 
BRANCH   7   8
ATOM      8  C   UNL d   1      -2.785   0.594   0.227  0.00  0.00    -0.020 C 
ATOM      9  C   UNL d   1      -3.617  -0.421   0.531  0.00  0.00    -0.091 C 
ATOM     10  C   UNL d   1      -4.545  -0.458   1.712  0.00  0.00     0.042 C 
ATOM     11  C   UNL d   1      -3.680  -1.643  -0.347  0.00  0.00     0.042 C 
ENDBRANCH   7   8
ENDBRANCH   1   7
BRANCH   2  12
ATOM     12  O   UNL d   1      -0.169  -1.549  -0.508  0.00  0.00    -0.354 OA
ATOM     13  C   UNL d   1      -0.052  -2.090  -1.821  0.00  0.00     0.210 C 
ENDBRANCH   2  12
BRANCH   4  14
ATOM     14  O   UNL d   1      -0.614   3.216  -0.468  0.00  0.00    -0.360 OA
ATOM     15  H   UNL d   1      -1.558   3.020  -0.371  0.00  0.00     0.217 HD
ENDBRANCH   4  14
BRANCH   3  16
ATOM     16  C   UNL d   1       2.514  -1.376   0.316  0.00  0.00     0.161 C 
ATOM     17  O   UNL d   1       3.186  -1.866  -0.610  0.00  0.00    -0.293 OA
ATOM     18  C   UNL d   1       2.559  -2.047   1.683  0.00  0.00     0.097 C 
ENDBRANCH   3  16
BRANCH   5  19
ATOM     19  O   UNL d   1       3.537   1.226   0.724  0.00  0.00    -0.360 OA
ATOM     20  H   UNL d   1       3.735   2.174   0.820  0.00  0.00     0.217 HD
ENDBRANCH   5  19
TORSDOF 6
