REMARK  0 active torsions:
REMARK  status: ('A' for Active; 'I' for Inactive)
ROOT
ATOM      1  C   UNL d   1      -2.569   0.230   0.055  0.00  0.00    -0.036 A 
ATOM      2  C   UNL d   1      -1.569  -0.760  -0.487  0.00  0.00     0.002 A 
ATOM      3  C   UNL d   1      -1.288   0.744  -0.534  0.00  0.00     0.021 A 
ATOM      4  C   UNL d   1      -0.981  -1.742   0.504  0.00  0.00     0.010 C 
ATOM      5  C   UNL d   1      -2.818   0.346   1.524  0.00  0.00     0.016 C 
ATOM      6  C   UNL d   1      -3.812   0.431  -0.749  0.00  0.00     0.016 C 
ATOM      7  C   UNL d   1      -0.202   1.248   0.315  0.00  0.00    -0.019 C 
ATOM      8  C   UNL d   1       0.298  -2.458   0.030  0.00  0.00     0.034 C 
ATOM      9  C   UNL d   1       1.003   1.713  -0.078  0.00  0.00    -0.087 C 
ATOM     10  C   UNL d   1       1.503  -1.554  -0.154  0.00  0.00    -0.087 C 
ATOM     11  C   UNL d   1       2.154   1.680   0.915  0.00  0.00     0.037 C 
ATOM     12  C   UNL d   1       2.929   0.339   0.827  0.00  0.00     0.031 C 
ATOM     13  C   UNL d   1       1.367   2.089  -1.486  0.00  0.00     0.043 C 
ATOM     14  C   UNL d   1       1.987  -0.842   0.887  0.00  0.00    -0.024 C 
ATOM     15  C   UNL d   1       1.999  -1.463  -1.570  0.00  0.00     0.043 C 
ENDROOT
TORSDOF 0
