REMARK  0 active torsions:
REMARK  status: ('A' for Active; 'I' for Inactive)
ROOT
ATOM      1  C   UNL d   1      -0.903  -0.072   0.562  0.00  0.00     0.007 A 
ATOM      2  C   UNL d   1      -2.242   0.459   0.121  0.00  0.00    -0.039 A 
ATOM      3  C   UNL d   1      -1.160   1.412   0.553  0.00  0.00    -0.001 A 
ATOM      4  C   UNL d   1       0.083  -0.611  -0.440  0.00  0.00     0.023 C 
ATOM      5  C   UNL d   1      -0.438   2.260  -0.448  0.00  0.00     0.010 C 
ATOM      6  C   UNL d   1       0.188  -2.151  -0.473  0.00  0.00    -0.010 C 
ATOM      7  C   UNL d   1       1.508  -0.156  -0.149  0.00  0.00    -0.073 C 
ATOM      8  C   UNL d   1      -3.385   0.263   1.060  0.00  0.00     0.015 C 
ATOM      9  C   UNL d   1      -2.650   0.384  -1.312  0.00  0.00     0.015 C 
ATOM     10  C   UNL d   1       1.058   2.378  -0.136  0.00  0.00     0.034 C 
ATOM     11  C   UNL d   1       1.356  -2.459   0.456  0.00  0.00     0.009 C 
ATOM     12  C   UNL d   1       2.367  -1.374   0.107  0.00  0.00     0.035 C 
ATOM     13  C   UNL d   1       1.924   1.125  -0.031  0.00  0.00    -0.081 C 
ATOM     14  C   UNL d   1      -1.076  -2.926  -0.130  0.00  0.00     0.010 C 
ATOM     15  C   UNL d   1       3.369   1.468   0.259  0.00  0.00     0.043 C 
ENDROOT
TORSDOF 0
