REMARK  1 active torsions:
REMARK  status: ('A' for Active; 'I' for Inactive)
REMARK    1  A    between atoms: C_2  and  C_3 
ROOT
ATOM      1  O   UNL d   1      -0.488  -2.331  -0.466  0.00  0.00    -0.293 OA
ATOM      2  C   UNL d   1      -0.815   0.041  -0.689  0.00  0.00     0.063 C 
ATOM      3  C   UNL d   1       0.103   1.165  -1.165  0.00  0.00     0.017 C 
ATOM      4  C   UNL d   1       1.258   1.433  -0.203  0.00  0.00     0.034 C 
ATOM      5  C   UNL d   1      -0.004  -1.203  -0.368  0.00  0.00     0.154 C 
ATOM      6  C   UNL d   1       1.945   0.169   0.245  0.00  0.00    -0.080 C 
ATOM      7  C   UNL d   1       1.381  -1.044   0.143  0.00  0.00     0.053 C 
ATOM      8  C   UNL d   1       3.319   0.343   0.825  0.00  0.00     0.043 C 
ENDROOT
BRANCH   2   9
ATOM      9  C   UNL d   1      -1.656   0.432   0.522  0.00  0.00    -0.011 C 
ATOM     10  C   UNL d   1      -2.454   1.703   0.235  0.00  0.00     0.010 C 
ATOM     11  C   UNL d   1      -2.589  -0.709   0.921  0.00  0.00     0.010 C 
ENDBRANCH   2   9
TORSDOF 1
