REMARK  3 active torsions:
REMARK  status: ('A' for Active; 'I' for Inactive)
REMARK    1  A    between atoms: O_1  and  C_6 
REMARK    2  A    between atoms: C_5  and  C_12 
REMARK    3  A    between atoms: C_7  and  C_14 
ROOT
ATOM      1  C   UNL d   1      -0.074  -0.197   0.083  0.00  0.00     0.008 C 
ATOM      2  C   UNL d   1       1.267  -0.819   0.488  0.00  0.00     0.025 C 
ATOM      3  C   UNL d   1      -0.143   1.262   0.559  0.00  0.00    -0.006 C 
ATOM      4  C   UNL d   1       2.469  -0.101  -0.141  0.00  0.00     0.058 C 
ATOM      5  C   UNL d   1      -1.099  -1.179   0.670  0.00  0.00     0.060 C 
ATOM      6  C   UNL d   1       1.038  -2.292   0.176  0.00  0.00     0.009 C 
ATOM      7  C   UNL d   1      -0.368  -2.536   0.735  0.00  0.00     0.013 C 
ATOM      8  C   UNL d   1       1.046   2.047  -0.035  0.00  0.00     0.008 C 
ATOM      9  C   UNL d   1       2.399   1.388   0.260  0.00  0.00     0.038 C 
ATOM     10  C   UNL d   1       2.585  -0.257  -1.660  0.00  0.00     0.046 C 
ENDROOT
BRANCH   3  11
ATOM     11  C   UNL d   1      -1.461   1.935   0.179  0.00  0.00    -0.018 C 
ATOM     12  C   UNL d   1      -1.522   3.352   0.744  0.00  0.00     0.010 C 
ATOM     13  C   UNL d   1      -1.637   1.952  -1.337  0.00  0.00     0.010 C 
ENDBRANCH   3  11
BRANCH   5  14
ATOM     14  C   UNL d   1      -2.309  -1.298  -0.203  0.00  0.00     0.127 C 
ATOM     15  O   UNL d   1      -2.223  -1.627  -1.385  0.00  0.00    -0.298 OA
ATOM     16  C   UNL d   1      -3.638  -0.997   0.437  0.00  0.00     0.091 C 
ENDBRANCH   5  14
BRANCH   4  17
ATOM     17  O   UNL d   1       3.669  -0.633   0.432  0.00  0.00    -0.390 OA
ATOM     18  H   UNL d   1       3.614  -0.542   1.399  0.00  0.00     0.210 HD
ENDBRANCH   4  17
TORSDOF 3
