REMARK  4 active torsions:
REMARK  status: ('A' for Active; 'I' for Inactive)
REMARK    1  A    between atoms: O_2  and  C_12 
REMARK    2  A    between atoms: O_4  and  C_14 
REMARK    3  A    between atoms: O_5  and  C_20 
REMARK    4  A    between atoms: C_8  and  C_9 
ROOT
ATOM      1  O   UNL d   1      -0.068   0.780  -0.048  0.00  0.00    -0.309 OA
ATOM      2  O   UNL d   1      -1.726  -2.934   0.183  0.00  0.00    -0.287 OA
ATOM      3  C   UNL d   1      -2.065  -0.600   0.035  0.00  0.00     0.081 A 
ATOM      4  C   UNL d   1      -1.433   0.639  -0.043  0.00  0.00     0.095 A 
ATOM      5  C   UNL d   1       0.714  -0.362   0.037  0.00  0.00     0.090 A 
ATOM      6  C   UNL d   1      -1.239  -1.815   0.115  0.00  0.00     0.190 A 
ATOM      7  C   UNL d   1       0.224  -1.610   0.109  0.00  0.00     0.094 A 
ATOM      8  C   UNL d   1      -3.459  -0.683   0.035  0.00  0.00     0.085 A 
ATOM      9  C   UNL d   1      -2.193   1.806  -0.122  0.00  0.00     0.075 A 
ATOM     10  C   UNL d   1      -3.586   1.728  -0.122  0.00  0.00     0.071 A 
ATOM     11  C   UNL d   1      -4.218   0.485  -0.043  0.00  0.00     0.074 A 
ENDROOT
BRANCH   5  12
ATOM     12  C   UNL d   1       2.166  -0.097   0.018  0.00  0.00    -0.002 A 
ATOM     13  C   UNL d   1       3.043  -1.034  -0.536  0.00  0.00     0.017 A 
ATOM     14  C   UNL d   1       4.415  -0.783  -0.555  0.00  0.00     0.037 A 
ATOM     15  C   UNL d   1       4.915   0.404  -0.020  0.00  0.00     0.065 A 
ATOM     16  C   UNL d   1       4.042   1.341   0.533  0.00  0.00     0.037 A 
ATOM     17  C   UNL d   1       2.670   1.091   0.552  0.00  0.00     0.017 A 
BRANCH  15  18
ATOM     18  O   UNL d   1       6.253   0.649  -0.039  0.00  0.00    -0.361 OA
ATOM     19  H   UNL d   1       6.705  -0.104  -0.458  0.00  0.00     0.217 HD
ENDBRANCH  15  18
ENDBRANCH   5  12
BRANCH   8  20
ATOM     20  O   UNL d   1      -4.124  -1.870   0.109  0.00  0.00    -0.360 OA
ATOM     21  H   UNL d   1      -3.497  -2.608   0.162  0.00  0.00     0.217 HD
ENDBRANCH   8  20
BRANCH  10  22
ATOM     22  O   UNL d   1      -4.331   2.865  -0.199  0.00  0.00    -0.361 OA
ATOM     23  H   UNL d   1      -5.274   2.626  -0.187  0.00  0.00     0.217 HD
ENDBRANCH  10  22
TORSDOF 4
