REMARK  10 active torsions:
REMARK  status: ('A' for Active; 'I' for Inactive)
REMARK    1  A    between atoms: O_2  and  C_11 
REMARK    2  A    between atoms: O_3  and  C_12 
REMARK    3  A    between atoms: O_4  and  C_14 
REMARK    4  A    between atoms: O_6  and  C_17 
REMARK    5  A    between atoms: O_7  and  C_19 
REMARK    6  A    between atoms: O_8  and  C_22 
REMARK    7  A    between atoms: O_10  and  C_31 
REMARK    8  A    between atoms: C_13  and  C_16 
REMARK    9  A    between atoms: C_15  and  C_17 
REMARK   10  A    between atoms: C_24  and  C_26 
ROOT
ATOM      1  O   UNL d   1      -0.130   0.727  -0.024  0.00  0.00    -0.308 OA
ATOM      2  O   UNL d   1      -2.221   4.205   0.338  0.00  0.00    -0.287 OA
ATOM      3  C   UNL d   1      -2.117  -0.544  -0.126  0.00  0.00     0.041 A 
ATOM      4  C   UNL d   1      -1.502   0.703  -0.013  0.00  0.00     0.104 A 
ATOM      5  C   UNL d   1      -3.510  -0.634  -0.120  0.00  0.00     0.080 A 
ATOM      6  C   UNL d   1      -2.278   1.854   0.107  0.00  0.00     0.082 A 
ATOM      7  C   UNL d   1      -4.285   0.520  -0.001  0.00  0.00     0.074 A 
ATOM      8  C   UNL d   1      -3.672   1.769   0.114  0.00  0.00     0.085 A 
ATOM      9  C   UNL d   1      -1.603   3.156   0.227  0.00  0.00     0.190 A 
ATOM     10  C   UNL d   1       0.509   1.953   0.080  0.00  0.00     0.090 A 
ATOM     11  C   UNL d   1      -0.127   3.129   0.207  0.00  0.00     0.094 A 
ENDROOT
BRANCH   3  12
ATOM     12  C   UNL d   1      -1.283  -1.804  -0.254  0.00  0.00     0.192 C 
ATOM     13  O   UNL d   1      -0.517  -1.941   0.947  0.00  0.00    -0.368 OA
ATOM     14  C   UNL d   1       0.245  -3.149   0.982  0.00  0.00     0.177 C 
ATOM     15  C   UNL d   1       1.268  -3.156  -0.155  0.00  0.00     0.180 C 
ATOM     16  C   UNL d   1       0.579  -2.966  -1.506  0.00  0.00     0.181 C 
ATOM     17  C   UNL d   1      -0.365  -1.762  -1.486  0.00  0.00     0.183 C 
BRANCH  14  18
ATOM     18  C   UNL d   1       0.917  -3.227   2.349  0.00  0.00     0.198 C 
BRANCH  18  19
ATOM     19  O   UNL d   1      -0.086  -3.205   3.347  0.00  0.00    -0.398 OA
ATOM     20  H   UNL d   1      -0.596  -2.385   3.234  0.00  0.00     0.209 HD
ENDBRANCH  18  19
ENDBRANCH  14  18
BRANCH  15  21
ATOM     21  O   UNL d   1       1.965  -4.399  -0.152  0.00  0.00    -0.390 OA
ATOM     22  H   UNL d   1       1.313  -5.109  -0.275  0.00  0.00     0.210 HD
ENDBRANCH  15  21
BRANCH  16  23
ATOM     23  O   UNL d   1       1.592  -2.759  -2.492  0.00  0.00    -0.390 OA
ATOM     24  H   UNL d   1       2.181  -3.533  -2.472  0.00  0.00     0.210 HD
ENDBRANCH  16  23
BRANCH  17  25
ATOM     25  O   UNL d   1      -1.176  -1.787  -2.660  0.00  0.00    -0.390 OA
ATOM     26  H   UNL d   1      -0.578  -1.808  -3.427  0.00  0.00     0.210 HD
ENDBRANCH  17  25
ENDBRANCH   3  12
BRANCH   5  27
ATOM     27  O   UNL d   1      -4.131  -1.841  -0.230  0.00  0.00    -0.360 OA
ATOM     28  H   UNL d   1      -5.094  -1.707  -0.207  0.00  0.00     0.217 HD
ENDBRANCH   5  27
BRANCH  10  29
ATOM     29  C   UNL d   1       1.983   1.865   0.063  0.00  0.00    -0.002 A 
ATOM     30  C   UNL d   1       2.744   2.924  -0.437  0.00  0.00     0.017 A 
ATOM     31  C   UNL d   1       4.137   2.839  -0.453  0.00  0.00     0.037 A 
ATOM     32  C   UNL d   1       4.772   1.696   0.030  0.00  0.00     0.065 A 
ATOM     33  C   UNL d   1       4.015   0.636   0.530  0.00  0.00     0.037 A 
ATOM     34  C   UNL d   1       2.623   0.720   0.547  0.00  0.00     0.017 A 
BRANCH  32  35
ATOM     35  O   UNL d   1       6.130   1.613   0.014  0.00  0.00    -0.361 OA
ATOM     36  H   UNL d   1       6.491   2.433  -0.364  0.00  0.00     0.217 HD
ENDBRANCH  32  35
ENDBRANCH  10  29
BRANCH   8  37
ATOM     37  O   UNL d   1      -4.474   2.864   0.229  0.00  0.00    -0.360 OA
ATOM     38  H   UNL d   1      -3.941   3.670   0.299  0.00  0.00     0.217 HD
ENDBRANCH   8  37
TORSDOF 10
