REMARK  12 active torsions:
REMARK  status: ('A' for Active; 'I' for Inactive)
REMARK    1  A    between atoms: O_2  and  C_17 
REMARK    2  A    between atoms: O_2  and  C_19 
REMARK    3  A    between atoms: O_3  and  C_13 
REMARK    4  A    between atoms: O_4  and  C_14 
REMARK    5  A    between atoms: O_5  and  C_15 
REMARK    6  A    between atoms: O_6  and  C_18 
REMARK    7  A    between atoms: O_9  and  C_25 
REMARK    8  A    between atoms: O_10  and  C_30 
REMARK    9  A    between atoms: O_11  and  C_31 
REMARK   10  A    between atoms: O_12  and  C_33 
REMARK   11  A    between atoms: C_16  and  C_18 
REMARK   12  A    between atoms: C_20  and  C_24 
ROOT
ATOM      1  O   UNL d   1      -1.897  -1.726   0.213  0.00  0.00    -0.306 OA
ATOM      2  O   UNL d   1      -1.493   1.921  -1.560  0.00  0.00    -0.284 OA
ATOM      3  C   UNL d   1      -0.480  -0.116  -0.903  0.00  0.00     0.157 A 
ATOM      4  C   UNL d   1      -0.682  -1.302  -0.301  0.00  0.00     0.124 A 
ATOM      5  C   UNL d   1      -1.617   0.828  -1.024  0.00  0.00     0.223 A 
ATOM      6  C   UNL d   1      -2.901   0.378  -0.464  0.00  0.00     0.084 A 
ATOM      7  C   UNL d   1      -2.974  -0.881   0.127  0.00  0.00     0.096 A 
ATOM      8  C   UNL d   1      -4.032   1.196  -0.525  0.00  0.00     0.085 A 
ATOM      9  C   UNL d   1      -4.181  -1.332   0.662  0.00  0.00     0.075 A 
ATOM     10  C   UNL d   1      -5.238   0.743   0.012  0.00  0.00     0.074 A 
ATOM     11  C   UNL d   1      -5.312  -0.518   0.604  0.00  0.00     0.071 A 
ENDROOT
BRANCH   3  12
ATOM     12  O   UNL d   1       0.735   0.262  -1.433  0.00  0.00    -0.311 OA
BRANCH  12  13
ATOM     13  C   UNL d   1       1.540   0.940  -0.469  0.00  0.00     0.298 C 
ATOM     14  O   UNL d   1       0.858   2.102  -0.004  0.00  0.00    -0.348 OA
ATOM     15  C   UNL d   1       1.602   2.815   0.985  0.00  0.00     0.179 C 
ATOM     16  C   UNL d   1       2.909   3.335   0.381  0.00  0.00     0.180 C 
ATOM     17  C   UNL d   1       3.720   2.189  -0.224  0.00  0.00     0.183 C 
ATOM     18  C   UNL d   1       2.857   1.325  -1.144  0.00  0.00     0.205 C 
BRANCH  15  19
ATOM     19  C   UNL d   1       0.722   3.953   1.491  0.00  0.00     0.198 C 
BRANCH  19  20
ATOM     20  O   UNL d   1      -0.468   3.400   2.024  0.00  0.00    -0.398 OA
ATOM     21  H   UNL d   1      -0.897   2.888   1.317  0.00  0.00     0.209 HD
ENDBRANCH  19  20
ENDBRANCH  15  19
BRANCH  16  22
ATOM     22  O   UNL d   1       3.678   3.970   1.399  0.00  0.00    -0.390 OA
ATOM     23  H   UNL d   1       3.260   4.825   1.598  0.00  0.00     0.210 HD
ENDBRANCH  16  22
BRANCH  17  24
ATOM     24  O   UNL d   1       4.794   2.757  -0.976  0.00  0.00    -0.390 OA
ATOM     25  H   UNL d   1       4.412   3.289  -1.695  0.00  0.00     0.210 HD
ENDBRANCH  17  24
BRANCH  18  26
ATOM     26  O   UNL d   1       3.561   0.127  -1.467  0.00  0.00    -0.388 OA
ATOM     27  H   UNL d   1       2.976  -0.414  -2.025  0.00  0.00     0.210 HD
ENDBRANCH  18  26
ENDBRANCH  12  13
ENDBRANCH   3  12
BRANCH   4  28
ATOM     28  C   UNL d   1       0.389  -2.303  -0.144  0.00  0.00     0.004 A 
ATOM     29  C   UNL d   1       1.197  -2.288   0.992  0.00  0.00     0.053 A 
ATOM     30  C   UNL d   1       2.210  -3.236   1.141  0.00  0.00     0.099 A 
ATOM     31  C   UNL d   1       2.414  -4.198   0.152  0.00  0.00     0.098 A 
ATOM     32  C   UNL d   1       1.607  -4.213  -0.985  0.00  0.00     0.040 A 
ATOM     33  C   UNL d   1       0.594  -3.266  -1.133  0.00  0.00     0.017 A 
BRANCH  30  34
ATOM     34  O   UNL d   1       2.994  -3.211   2.254  0.00  0.00    -0.358 OA
ATOM     35  H   UNL d   1       3.640  -3.936   2.190  0.00  0.00     0.217 HD
ENDBRANCH  30  34
BRANCH  31  36
ATOM     36  O   UNL d   1       3.400  -5.130   0.286  0.00  0.00    -0.358 OA
ATOM     37  H   UNL d   1       3.393  -5.712  -0.493  0.00  0.00     0.217 HD
ENDBRANCH  31  36
ENDBRANCH   4  28
BRANCH   8  38
ATOM     38  O   UNL d   1      -4.014   2.434  -1.092  0.00  0.00    -0.360 OA
ATOM     39  H   UNL d   1      -3.127   2.646  -1.419  0.00  0.00     0.217 HD
ENDBRANCH   8  38
BRANCH  11  40
ATOM     40  O   UNL d   1      -6.491  -0.955   1.126  0.00  0.00    -0.361 OA
ATOM     41  H   UNL d   1      -6.362  -1.846   1.494  0.00  0.00     0.217 HD
ENDBRANCH  11  40
TORSDOF 12
