REMARK  2 active torsions:
REMARK  status: ('A' for Active; 'I' for Inactive)
REMARK    1  A    between atoms: O_3  and  C_18 
REMARK    2  A    between atoms: O_4  and  C_22 
ROOT
ATOM      1  O   UNL d   1       5.182  -1.804  -0.161  0.00  0.00    -0.323 OA
ATOM      2  O   UNL d   1       6.124   0.408  -0.018  0.00  0.00    -0.323 OA
ATOM      3  N   UNL d   1      -0.037  -1.250  -0.085  0.00  0.00    -0.359 N 
ATOM      4  C   UNL d   1       0.557  -0.041  -0.007  0.00  0.00     0.056 A 
ATOM      5  C   UNL d   1      -0.286   1.104   0.076  0.00  0.00     0.003 A 
ATOM      6  C   UNL d   1       1.984   0.068  -0.011  0.00  0.00     0.005 A 
ATOM      7  C   UNL d   1      -1.712   0.933   0.075  0.00  0.00    -0.009 A 
ATOM      8  C   UNL d   1      -2.237  -0.373  -0.009  0.00  0.00     0.027 A 
ATOM      9  C   UNL d   1       2.566   1.366   0.072  0.00  0.00    -0.021 A 
ATOM     10  C   UNL d   1      -1.358  -1.441  -0.088  0.00  0.00     0.106 A 
ATOM     11  C   UNL d   1       0.350   2.359   0.156  0.00  0.00     0.015 A 
ATOM     12  C   UNL d   1       2.862  -1.044  -0.092  0.00  0.00     0.054 A 
ATOM     13  C   UNL d   1       1.740   2.487   0.154  0.00  0.00     0.013 A 
ATOM     14  C   UNL d   1       3.963   1.537   0.074  0.00  0.00     0.052 A 
ATOM     15  C   UNL d   1       4.228  -0.836  -0.088  0.00  0.00     0.105 A 
ATOM     16  C   UNL d   1      -3.623  -0.600  -0.014  0.00  0.00     0.114 A 
ATOM     17  C   UNL d   1      -2.654   1.991   0.154  0.00  0.00     0.016 A 
ATOM     18  C   UNL d   1       4.764   0.420  -0.007  0.00  0.00     0.105 A 
ATOM     19  C   UNL d   1       0.617  -2.555  -0.176  0.00  0.00     0.156 C 
ATOM     20  C   UNL d   1      -4.518   0.462   0.066  0.00  0.00     0.102 A 
ATOM     21  C   UNL d   1      -4.033   1.759   0.149  0.00  0.00     0.040 A 
ATOM     22  C   UNL d   1       6.383  -1.007  -0.115  0.00  0.00     0.352 A 
ENDROOT
BRANCH  16  23
ATOM     23  O   UNL d   1      -4.130  -1.868  -0.095  0.00  0.00    -0.352 OA
ATOM     24  C   UNL d   1      -4.357  -2.549   1.135  0.00  0.00     0.210 C 
ENDBRANCH  16  23
BRANCH  20  25
ATOM     25  O   UNL d   1      -5.862   0.247   0.062  0.00  0.00    -0.353 OA
ATOM     26  C   UNL d   1      -6.513   0.230  -1.207  0.00  0.00     0.210 C 
ENDBRANCH  20  25
TORSDOF 2
