REMARK  3 active torsions:
REMARK  status: ('A' for Active; 'I' for Inactive)
REMARK    1  A    between atoms: O_1  and  C_6 
REMARK    2  A    between atoms: C_2  and  C_3 
REMARK    3  A    between atoms: C_3  and  C_9 
ROOT
ATOM      1  C   UNL d   1       0.920  -0.292  -0.425  0.00  0.00    -0.055 A 
ATOM      2  C   UNL d   1       0.253  -1.451  -0.027  0.00  0.00     0.010 A 
ATOM      3  C   UNL d   1       0.217   0.905  -0.561  0.00  0.00     0.010 A 
ATOM      4  C   UNL d   1      -1.819  -0.215   0.099  0.00  0.00     0.068 A 
ATOM      5  C   UNL d   1      -1.116  -1.412   0.235  0.00  0.00     0.037 A 
ATOM      6  C   UNL d   1      -1.152   0.944  -0.299  0.00  0.00     0.037 A 
ENDROOT
BRANCH   1   7
ATOM      7  C   UNL d   1       2.384  -0.333  -0.705  0.00  0.00     0.064 C 
BRANCH   7   8
ATOM      8  C   UNL d   1       3.226  -0.045   0.511  0.00  0.00    -0.032 C 
ATOM      9  C   UNL d   1       4.056   0.999   0.621  0.00  0.00     0.007 C 
ENDBRANCH   7   8
ENDBRANCH   1   7
BRANCH   4  10
ATOM     10  O   UNL d   1      -3.155  -0.178   0.355  0.00  0.00    -0.356 OA
ATOM     11  C   UNL d   1      -3.812   1.079   0.196  0.00  0.00     0.210 C 
ENDBRANCH   4  10
TORSDOF 3
