REMARK  13 active torsions:
REMARK  status: ('A' for Active; 'I' for Inactive)
REMARK    1  A    between atoms: O_1  and  C_27 
REMARK    2  A    between atoms: O_1  and  C_31 
REMARK    3  A    between atoms: O_3  and  C_34 
REMARK    4  A    between atoms: O_4  and  C_37 
REMARK    5  A    between atoms: O_5  and  C_40 
REMARK    6  A    between atoms: O_6  and  C_41 
REMARK    7  A    between atoms: C_11  and  C_18 
REMARK    8  A    between atoms: C_18  and  C_26 
REMARK    9  A    between atoms: C_26  and  C_29 
REMARK   10  A    between atoms: C_29  and  C_30 
REMARK   11  A    between atoms: C_30  and  C_32 
REMARK   12  A    between atoms: C_30  and  C_33 
REMARK   13  A    between atoms: C_39  and  C_41 
ROOT
ATOM      1  C   UNL d   1       2.315  -1.101  -0.109  0.00  0.00    -0.036 C 
ATOM      2  C   UNL d   1       1.860  -2.471   0.451  0.00  0.00    -0.001 C 
ATOM      3  C   UNL d   1       0.351  -2.697   0.604  0.00  0.00    -0.001 C 
ATOM      4  C   UNL d   1      -0.353  -2.404  -0.756  0.00  0.00     0.003 C 
ATOM      5  C   UNL d   1       3.841  -1.388  -0.173  0.00  0.00    -0.002 C 
ATOM      6  C   UNL d   1       1.626  -0.898  -1.463  0.00  0.00     0.010 C 
ATOM      7  C   UNL d   1      -1.918  -2.651  -0.675  0.00  0.00    -0.017 C 
ATOM      8  C   UNL d   1       2.791  -2.713   1.633  0.00  0.00     0.006 C 
ATOM      9  C   UNL d   1       0.093  -1.042  -1.352  0.00  0.00     0.007 C 
ATOM     10  C   UNL d   1       4.130  -2.106   1.169  0.00  0.00     0.006 C 
ATOM     11  C   UNL d   1      -0.296  -1.995   1.802  0.00  0.00     0.033 C 
ATOM     12  C   UNL d   1       2.045   0.137   0.777  0.00  0.00     0.016 C 
ATOM     13  C   UNL d   1      -2.527  -2.189   0.647  0.00  0.00    -0.072 C 
ATOM     14  C   UNL d   1      -2.652  -1.951  -1.855  0.00  0.00     0.016 C 
ATOM     15  C   UNL d   1      -1.784  -1.890   1.725  0.00  0.00    -0.023 C 
ATOM     16  C   UNL d   1      -2.152  -4.184  -0.781  0.00  0.00     0.020 C 
ATOM     17  C   UNL d   1      -4.041  -2.133   0.741  0.00  0.00     0.066 C 
ATOM     18  C   UNL d   1      -4.180  -2.018  -1.781  0.00  0.00     0.033 C 
ATOM     19  C   UNL d   1      -4.694  -1.453  -0.460  0.00  0.00     0.128 C 
ENDROOT
BRANCH  19  20
ATOM     20  O   UNL d   1      -4.436  -0.051  -0.387  0.00  0.00    -0.353 OA
BRANCH  20  21
ATOM     21  C   UNL d   1      -5.510   0.704  -0.945  0.00  0.00     0.292 C 
ATOM     22  O   UNL d   1      -6.542   0.963   0.009  0.00  0.00    -0.348 OA
ATOM     23  C   UNL d   1      -6.125   1.823   1.075  0.00  0.00     0.179 C 
ATOM     24  C   UNL d   1      -5.677   3.188   0.534  0.00  0.00     0.180 C 
ATOM     25  C   UNL d   1      -4.602   3.030  -0.543  0.00  0.00     0.183 C 
ATOM     26  C   UNL d   1      -5.038   2.007  -1.591  0.00  0.00     0.204 C 
BRANCH  23  27
ATOM     27  C   UNL d   1      -7.305   1.947   2.035  0.00  0.00     0.198 C 
BRANCH  27  28
ATOM     28  O   UNL d   1      -7.662   0.651   2.479  0.00  0.00    -0.398 OA
ATOM     29  H   UNL d   1      -8.415   0.752   3.085  0.00  0.00     0.209 HD
ENDBRANCH  27  28
ENDBRANCH  23  27
BRANCH  24  30
ATOM     30  O   UNL d   1      -5.135   3.984   1.585  0.00  0.00    -0.390 OA
ATOM     31  H   UNL d   1      -4.861   4.832   1.197  0.00  0.00     0.210 HD
ENDBRANCH  24  30
BRANCH  25  32
ATOM     32  O   UNL d   1      -4.414   4.297  -1.177  0.00  0.00    -0.390 OA
ATOM     33  H   UNL d   1      -5.257   4.562  -1.583  0.00  0.00     0.210 HD
ENDBRANCH  25  32
BRANCH  26  34
ATOM     34  O   UNL d   1      -3.956   1.754  -2.481  0.00  0.00    -0.388 OA
ATOM     35  H   UNL d   1      -4.258   1.095  -3.128  0.00  0.00     0.210 HD
ENDBRANCH  26  34
ENDBRANCH  20  21
ENDBRANCH  19  20
BRANCH   5  36
ATOM     36  C   UNL d   1       4.766  -0.204  -0.420  0.00  0.00    -0.014 C 
ATOM     37  C   UNL d   1       4.386   0.496  -1.729  0.00  0.00     0.010 C 
BRANCH  36  38
ATOM     38  C   UNL d   1       6.236  -0.674  -0.420  0.00  0.00     0.005 C 
BRANCH  38  39
ATOM     39  C   UNL d   1       7.291   0.395  -0.750  0.00  0.00     0.005 C 
BRANCH  39  40
ATOM     40  C   UNL d   1       7.411   1.575   0.249  0.00  0.00    -0.012 C 
BRANCH  40  41
ATOM     41  C   UNL d   1       8.425   2.661  -0.233  0.00  0.00    -0.019 C 
ATOM     42  C   UNL d   1       8.059   3.227  -1.611  0.00  0.00     0.010 C 
ATOM     43  C   UNL d   1       9.882   2.192  -0.241  0.00  0.00     0.010 C 
ENDBRANCH  40  41
BRANCH  40  44
ATOM     44  C   UNL d   1       7.714   1.051   1.674  0.00  0.00     0.000 C 
ATOM     45  C   UNL d   1       7.778   2.133   2.744  0.00  0.00     0.005 C 
ENDBRANCH  40  44
ENDBRANCH  39  40
ENDBRANCH  38  39
ENDBRANCH  36  38
ENDBRANCH   5  36
TORSDOF 13
