REMARK  10 active torsions:
REMARK  status: ('A' for Active; 'I' for Inactive)
REMARK    1  A    between atoms: O_2  and  C_17 
REMARK    2  A    between atoms: O_4  and  C_19 
REMARK    3  A    between atoms: O_5  and  C_23 
REMARK    4  A    between atoms: O_6  and  C_29 
REMARK    5  A    between atoms: C_7  and  C_8 
REMARK    6  A    between atoms: C_7  and  C_14 
REMARK    7  A    between atoms: C_7  and  C_16 
REMARK    8  A    between atoms: C_8  and  C_9 
REMARK    9  A    between atoms: C_11  and  C_18 
REMARK   10  A    between atoms: C_14  and  C_21 
ROOT
ATOM      1  O   UNL d   1      -0.259   0.877  -0.617  0.00  0.00    -0.339 OA
ATOM      2  O   UNL d   1       0.265   4.608   1.005  0.00  0.00    -0.292 OA
ATOM      3  C   UNL d   1       2.070   0.570  -0.788  0.00  0.00     0.010 A 
ATOM      4  C   UNL d   1       0.999   1.372  -0.392  0.00  0.00     0.095 A 
ATOM      5  C   UNL d   1      -1.247   1.442   0.258  0.00  0.00     0.172 C 
ATOM      6  C   UNL d   1      -1.263   2.966   0.156  0.00  0.00     0.121 C 
ATOM      7  C   UNL d   1       1.244   2.626   0.177  0.00  0.00     0.077 A 
ATOM      8  C   UNL d   1       0.100   3.497   0.516  0.00  0.00     0.167 C 
ATOM      9  C   UNL d   1       3.380   1.007  -0.586  0.00  0.00     0.077 A 
ATOM     10  C   UNL d   1       2.554   3.065   0.381  0.00  0.00     0.085 A 
ATOM     11  C   UNL d   1       3.621   2.249   0.002  0.00  0.00     0.074 A 
ENDROOT
BRANCH   3  12
ATOM     12  C   UNL d   1       1.823  -0.769  -1.420  0.00  0.00     0.053 C 
BRANCH  12  13
ATOM     13  C   UNL d   1       1.739  -1.934  -0.403  0.00  0.00     0.021 C 
BRANCH  13  14
ATOM     14  C   UNL d   1       0.898  -3.089  -1.003  0.00  0.00     0.036 C 
BRANCH  14  15
ATOM     15  C   UNL d   1       0.679  -4.216  -0.029  0.00  0.00    -0.024 C 
ATOM     16  C   UNL d   1      -0.272  -4.332   0.917  0.00  0.00    -0.091 C 
ATOM     17  C   UNL d   1      -0.326  -5.557   1.792  0.00  0.00     0.042 C 
ATOM     18  C   UNL d   1      -1.342  -3.319   1.210  0.00  0.00     0.042 C 
ENDBRANCH  14  15
ENDBRANCH  13  14
BRANCH  13  19
ATOM     19  C   UNL d   1       3.116  -2.396   0.072  0.00  0.00    -0.088 C 
ATOM     20  C   UNL d   1       4.083  -2.952  -0.937  0.00  0.00     0.043 C 
ATOM     21  C   UNL d   1       3.461  -2.307   1.368  0.00  0.00     0.014 C 
ENDBRANCH  13  19
ENDBRANCH  12  13
ENDBRANCH   3  12
BRANCH   9  22
ATOM     22  O   UNL d   1       4.442   0.233  -0.957  0.00  0.00    -0.360 OA
ATOM     23  H   UNL d   1       5.266   0.697  -0.734  0.00  0.00     0.217 HD
ENDBRANCH   9  22
BRANCH   5  24
ATOM     24  C   UNL d   1      -2.597   0.856  -0.101  0.00  0.00     0.005 A 
ATOM     25  C   UNL d   1      -3.564   0.635   0.880  0.00  0.00     0.077 A 
ATOM     26  C   UNL d   1      -4.801   0.095   0.531  0.00  0.00     0.073 A 
ATOM     27  C   UNL d   1      -5.073  -0.224  -0.799  0.00  0.00     0.068 A 
ATOM     28  C   UNL d   1      -4.107  -0.004  -1.780  0.00  0.00     0.037 A 
ATOM     29  C   UNL d   1      -2.869   0.536  -1.432  0.00  0.00     0.015 A 
BRANCH  25  30
ATOM     30  O   UNL d   1      -3.315   0.942   2.184  0.00  0.00    -0.360 OA
ATOM     31  H   UNL d   1      -4.097   0.721   2.718  0.00  0.00     0.217 HD
ENDBRANCH  25  30
BRANCH  27  32
ATOM     32  O   UNL d   1      -6.281  -0.751  -1.139  0.00  0.00    -0.361 OA
ATOM     33  H   UNL d   1      -6.826  -0.836  -0.338  0.00  0.00     0.217 HD
ENDBRANCH  27  32
ENDBRANCH   5  24
BRANCH  10  34
ATOM     34  O   UNL d   1       2.847   4.274   0.935  0.00  0.00    -0.360 OA
ATOM     35  H   UNL d   1       2.036   4.723   1.220  0.00  0.00     0.217 HD
ENDBRANCH  10  34
TORSDOF 10
