REMARK  5 active torsions:
REMARK  status: ('A' for Active; 'I' for Inactive)
REMARK    1  A    between atoms: O_2  and  C_11 
REMARK    2  A    between atoms: O_3  and  C_13 
REMARK    3  A    between atoms: O_5  and  C_15 
REMARK    4  A    between atoms: O_6  and  C_21 
REMARK    5  A    between atoms: C_9  and  C_12 
ROOT
ATOM      1  O   UNL d   1      -0.113  -0.891  -0.002  0.00  0.00    -0.306 OA
ATOM      2  O   UNL d   1      -1.778   2.828  -0.005  0.00  0.00    -0.284 OA
ATOM      3  C   UNL d   1      -2.107   0.493   0.001  0.00  0.00     0.084 A 
ATOM      4  C   UNL d   1      -1.476  -0.749   0.000  0.00  0.00     0.096 A 
ATOM      5  C   UNL d   1       0.671   0.252   0.010  0.00  0.00     0.123 A 
ATOM      6  C   UNL d   1      -1.281   1.710  -0.000  0.00  0.00     0.223 A 
ATOM      7  C   UNL d   1       0.188   1.508   0.003  0.00  0.00     0.152 A 
ATOM      8  C   UNL d   1      -3.502   0.576   0.002  0.00  0.00     0.085 A 
ATOM      9  C   UNL d   1      -2.238  -1.919  -0.001  0.00  0.00     0.075 A 
ATOM     10  C   UNL d   1      -3.630  -1.840   0.000  0.00  0.00     0.071 A 
ATOM     11  C   UNL d   1      -4.261  -0.595   0.002  0.00  0.00     0.074 A 
ENDROOT
BRANCH   5  12
ATOM     12  C   UNL d   1       2.115  -0.041   0.006  0.00  0.00     0.001 A 
ATOM     13  C   UNL d   1       2.804  -0.171   1.212  0.00  0.00     0.017 A 
ATOM     14  C   UNL d   1       4.171  -0.449   1.208  0.00  0.00     0.037 A 
ATOM     15  C   UNL d   1       4.849  -0.597  -0.001  0.00  0.00     0.065 A 
ATOM     16  C   UNL d   1       4.160  -0.468  -1.208  0.00  0.00     0.037 A 
ATOM     17  C   UNL d   1       2.793  -0.190  -1.204  0.00  0.00     0.017 A 
BRANCH  15  18
ATOM     18  O   UNL d   1       6.183  -0.869  -0.005  0.00  0.00    -0.361 OA
ATOM     19  H   UNL d   1       6.495  -0.925   0.914  0.00  0.00     0.217 HD
ENDBRANCH  15  18
ENDBRANCH   5  12
BRANCH   7  20
ATOM     20  O   UNL d   1       0.996   2.625  -0.019  0.00  0.00    -0.355 OA
ATOM     21  H   UNL d   1       1.929   2.357  -0.019  0.00  0.00     0.218 HD
ENDBRANCH   7  20
BRANCH   8  22
ATOM     22  O   UNL d   1      -4.167   1.765   0.003  0.00  0.00    -0.360 OA
ATOM     23  H   UNL d   1      -3.541   2.505   0.007  0.00  0.00     0.217 HD
ENDBRANCH   8  22
BRANCH  10  24
ATOM     24  O   UNL d   1      -4.376  -2.979  -0.001  0.00  0.00    -0.361 OA
ATOM     25  H   UNL d   1      -5.318  -2.739   0.000  0.00  0.00     0.217 HD
ENDBRANCH  10  24
TORSDOF 5
