REMARK  1 active torsions:
REMARK  status: ('A' for Active; 'I' for Inactive)
REMARK    1  A    between atoms: C_1  and  C_5 
ROOT
ATOM      1  C   UNL d   1       0.492   0.326   0.250  0.00  0.00    -0.026 A 
ATOM      2  C   UNL d   1      -0.725   0.762  -0.543  0.00  0.00     0.024 A 
ATOM      3  C   UNL d   1      -0.081   1.705   0.434  0.00  0.00     0.020 A 
ATOM      4  C   UNL d   1       0.068  -0.841   1.117  0.00  0.00     0.038 A 
ATOM      5  C   UNL d   1      -1.799  -0.153  -0.107  0.00  0.00    -0.083 A 
ATOM      6  C   UNL d   1      -1.393  -1.056   0.804  0.00  0.00    -0.023 A 
ATOM      7  C   UNL d   1      -3.174  -0.028  -0.661  0.00  0.00     0.043 C 
ENDROOT
BRANCH   1   8
ATOM      8  C   UNL d   1       1.806   0.204  -0.440  0.00  0.00    -0.013 C 
ATOM      9  C   UNL d   1       2.970   0.068   0.560  0.00  0.00     0.010 C 
ATOM     10  C   UNL d   1       1.836  -0.988  -1.415  0.00  0.00     0.010 C 
ENDBRANCH   1   8
TORSDOF 1
