REMARK  1 active torsions:
REMARK  status: ('A' for Active; 'I' for Inactive)
REMARK    1  A    between atoms: C_2  and  C_7 
ROOT
ATOM      1  O   UNL d   1      -2.355   1.667   0.000  0.00  0.00    -0.298 OA
ATOM      2  C   UNL d   1       0.707  -0.109  -0.429  0.00  0.00    -0.026 A 
ATOM      3  C   UNL d   1      -0.286  -1.227  -0.353  0.00  0.00     0.006 A 
ATOM      4  C   UNL d   1       0.469  -0.980  -1.633  0.00  0.00     0.017 A 
ATOM      5  C   UNL d   1      -1.673  -0.668  -0.157  0.00  0.00     0.056 A 
ATOM      6  C   UNL d   1       0.007   1.208  -0.279  0.00  0.00     0.089 A 
ATOM      7  C   UNL d   1      -1.459   0.843  -0.131  0.00  0.00     0.131 A 
ATOM      8  C   UNL d   1      -2.302  -1.134   1.145  0.00  0.00     0.018 C 
ENDROOT
BRANCH   2   9
ATOM      9  C   UNL d   1       2.009  -0.254   0.277  0.00  0.00    -0.013 C 
ATOM     10  C   UNL d   1       3.040   0.761  -0.234  0.00  0.00     0.010 C 
ATOM     11  C   UNL d   1       1.843  -0.107   1.795  0.00  0.00     0.010 C 
ENDBRANCH   2   9
TORSDOF 1
