REMARK  0 active torsions:
REMARK  status: ('A' for Active; 'I' for Inactive)
ROOT
ATOM      1  C   UNL d   1      -0.162   0.883  -0.000  0.00  0.00    -0.029 A 
ATOM      2  C   UNL d   1       1.131   0.758   0.745  0.00  0.00    -0.000 A 
ATOM      3  C   UNL d   1       1.131   0.758  -0.745  0.00  0.00    -0.000 A 
ATOM      4  C   UNL d   1      -0.851  -0.476   0.000  0.00  0.00    -0.036 C 
ATOM      5  C   UNL d   1       0.504  -1.303   0.000  0.00  0.00    -0.005 C 
ATOM      6  C   UNL d   1       1.298  -0.675   1.197  0.00  0.00     0.011 C 
ATOM      7  C   UNL d   1       1.298  -0.676  -1.197  0.00  0.00     0.011 C 
ATOM      8  C   UNL d   1      -0.927   2.146  -0.001  0.00  0.00     0.016 C 
ATOM      9  C   UNL d   1      -1.712  -0.709  -1.247  0.00  0.00     0.016 C 
ATOM     10  C   UNL d   1      -1.711  -0.707   1.248  0.00  0.00     0.016 C 
ENDROOT
TORSDOF 0
