REMARK  4 active torsions:
REMARK  status: ('A' for Active; 'I' for Inactive)
REMARK    1  A    between atoms: O_1  and  C_6 
REMARK    2  A    between atoms: O_2  and  C_8 
REMARK    3  A    between atoms: C_3  and  C_4 
REMARK    4  A    between atoms: C_4  and  C_10 
ROOT
ATOM      1  C   UNL d   1      -1.238  -0.109   0.524  0.00  0.00    -0.052 A 
ATOM      2  C   UNL d   1      -0.364   0.978   0.557  0.00  0.00     0.047 A 
ATOM      3  C   UNL d   1       0.998   0.785   0.323  0.00  0.00     0.102 A 
ATOM      4  C   UNL d   1      -0.751  -1.388   0.256  0.00  0.00     0.010 A 
ATOM      5  C   UNL d   1       1.485  -0.495   0.055  0.00  0.00     0.101 A 
ATOM      6  C   UNL d   1       0.611  -1.581   0.021  0.00  0.00     0.040 A 
ENDROOT
BRANCH   1   7
ATOM      7  C   UNL d   1      -2.693   0.097   0.775  0.00  0.00     0.065 C 
BRANCH   7   8
ATOM      8  C   UNL d   1      -3.474   0.385  -0.481  0.00  0.00    -0.032 C 
ATOM      9  C   UNL d   1      -4.512  -0.345  -0.905  0.00  0.00     0.007 C 
ENDBRANCH   7   8
ENDBRANCH   1   7
BRANCH   3  10
ATOM     10  O   UNL d   1       1.842   1.853   0.358  0.00  0.00    -0.353 OA
ATOM     11  C   UNL d   1       2.056   2.551  -0.867  0.00  0.00     0.210 C 
ENDBRANCH   3  10
BRANCH   5  12
ATOM     12  O   UNL d   1       2.812  -0.696  -0.175  0.00  0.00    -0.353 OA
ATOM     13  C   UNL d   1       3.228  -2.034  -0.442  0.00  0.00     0.210 C 
ENDBRANCH   5  12
TORSDOF 4
