REMARK  4 active torsions:
REMARK  status: ('A' for Active; 'I' for Inactive)
REMARK    1  A    between atoms: C_1  and  C_2 
REMARK    2  A    between atoms: C_1  and  C_3 
REMARK    3  A    between atoms: C_2  and  C_4 
REMARK    4  A    between atoms: C_4  and  C_8 
ROOT
ATOM      1  C   UNL d   1       0.197   1.967   0.044  0.00  0.00     0.015 C 
ATOM      2  C   UNL d   1       0.546   3.017  -1.019  0.00  0.00     0.015 C 
ENDROOT
BRANCH   1   3
ATOM      3  C   UNL d   1      -1.251   1.465  -0.162  0.00  0.00     0.012 C 
BRANCH   3   4
ATOM      4  C   UNL d   1      -1.779   0.525   0.934  0.00  0.00     0.028 C 
BRANCH   4   5
ATOM      5  C   UNL d   1      -3.217   0.139   0.733  0.00  0.00    -0.025 C 
ATOM      6  C   UNL d   1      -3.712  -0.901   0.035  0.00  0.00    -0.091 C 
ATOM      7  C   UNL d   1      -5.169  -1.232  -0.127  0.00  0.00     0.042 C 
ATOM      8  C   UNL d   1      -2.782  -1.856  -0.665  0.00  0.00     0.042 C 
ENDBRANCH   4   5
ENDBRANCH   3   4
ENDBRANCH   1   3
BRANCH   1   9
ATOM      9  C   UNL d   1       1.234   0.857   0.039  0.00  0.00    -0.054 A 
ATOM     10  C   UNL d   1       2.017   0.666   1.161  0.00  0.00     0.008 A 
ATOM     11  C   UNL d   1       2.970  -0.353   1.156  0.00  0.00     0.007 A 
ATOM     12  C   UNL d   1       3.121  -1.161   0.029  0.00  0.00    -0.062 A 
ATOM     13  C   UNL d   1       2.319  -0.950  -1.093  0.00  0.00     0.007 A 
ATOM     14  C   UNL d   1       4.138  -2.251   0.024  0.00  0.00     0.048 C 
ATOM     15  C   UNL d   1       1.367   0.069  -1.088  0.00  0.00     0.008 A 
ENDBRANCH   1   9
TORSDOF 4
