REMARK  5 active torsions:
REMARK  status: ('A' for Active; 'I' for Inactive)
REMARK    1  A    between atoms: O_2  and  C_13 
REMARK    2  A    between atoms: O_4  and  C_16 
REMARK    3  A    between atoms: O_5  and  C_19 
REMARK    4  A    between atoms: O_6  and  C_21 
REMARK    5  A    between atoms: C_9  and  C_10 
ROOT
ATOM      1  O   UNL d   1      -0.248   0.671  -0.129  0.00  0.00    -0.309 OA
ATOM      2  O   UNL d   1      -2.109  -2.925   0.329  0.00  0.00    -0.287 OA
ATOM      3  C   UNL d   1      -2.317  -0.586   0.062  0.00  0.00     0.081 A 
ATOM      4  C   UNL d   1      -1.618   0.610  -0.093  0.00  0.00     0.095 A 
ATOM      5  C   UNL d   1       0.470  -0.508   0.003  0.00  0.00     0.090 A 
ATOM      6  C   UNL d   1      -1.560  -1.840   0.193  0.00  0.00     0.190 A 
ATOM      7  C   UNL d   1      -0.088  -1.720   0.151  0.00  0.00     0.094 A 
ATOM      8  C   UNL d   1      -3.714  -0.588   0.091  0.00  0.00     0.085 A 
ATOM      9  C   UNL d   1      -2.312   1.812  -0.221  0.00  0.00     0.075 A 
ATOM     10  C   UNL d   1      -3.707   1.814  -0.193  0.00  0.00     0.071 A 
ATOM     11  C   UNL d   1      -4.406   0.617  -0.037  0.00  0.00     0.074 A 
ENDROOT
BRANCH   5  12
ATOM     12  C   UNL d   1       1.935  -0.329  -0.055  0.00  0.00     0.001 A 
ATOM     13  C   UNL d   1       2.516   0.854   0.407  0.00  0.00     0.053 A 
ATOM     14  C   UNL d   1       3.899   1.023   0.352  0.00  0.00     0.099 A 
ATOM     15  C   UNL d   1       4.706   0.009  -0.165  0.00  0.00     0.098 A 
ATOM     16  C   UNL d   1       4.129  -1.173  -0.628  0.00  0.00     0.040 A 
ATOM     17  C   UNL d   1       2.745  -1.342  -0.573  0.00  0.00     0.017 A 
BRANCH  14  18
ATOM     18  O   UNL d   1       4.452   2.183   0.806  0.00  0.00    -0.358 OA
ATOM     19  H   UNL d   1       5.416   2.127   0.692  0.00  0.00     0.217 HD
ENDBRANCH  14  18
BRANCH  15  20
ATOM     20  O   UNL d   1       6.058   0.162  -0.223  0.00  0.00    -0.358 OA
ATOM     21  H   UNL d   1       6.451  -0.639  -0.609  0.00  0.00     0.217 HD
ENDBRANCH  15  20
ENDBRANCH   5  12
BRANCH   8  22
ATOM     22  O   UNL d   1      -4.443  -1.729   0.240  0.00  0.00    -0.360 OA
ATOM     23  H   UNL d   1      -3.858  -2.498   0.322  0.00  0.00     0.217 HD
ENDBRANCH   8  22
BRANCH  10  24
ATOM     24  O   UNL d   1      -4.388   2.987  -0.318  0.00  0.00    -0.361 OA
ATOM     25  H   UNL d   1      -5.342   2.804  -0.277  0.00  0.00     0.217 HD
ENDBRANCH  10  24
TORSDOF 5
