REMARK  4 active torsions:
REMARK  status: ('A' for Active; 'I' for Inactive)
REMARK    1  A    between atoms: O_1  and  C_4 
REMARK    2  A    between atoms: O_1  and  C_7 
REMARK    3  A    between atoms: C_4  and  C_5 
REMARK    4  A    between atoms: C_6  and  C_7 
ROOT
ATOM      1  C   UNL d   1       0.147  -0.888   0.287  0.00  0.00     0.243 C 
ENDROOT
BRANCH   1   2
ATOM      2  O   UNL d   1      -0.793   0.118  -0.102  0.00  0.00    -0.315 OA
BRANCH   2   3
ATOM      3  C   UNL d   1      -2.109  -0.213   0.058  0.00  0.00     0.258 C 
ATOM      4  O   UNL d   1      -2.534  -1.273   0.496  0.00  0.00    -0.265 OA
BRANCH   3   5
ATOM      5  C   UNL d   1      -2.964   0.948  -0.395  0.00  0.00     0.106 C 
ATOM      6  C   UNL d   1      -4.447   0.649  -0.265  0.00  0.00     0.015 C 
ENDBRANCH   3   5
ENDBRANCH   2   3
ENDBRANCH   1   2
BRANCH   1   7
ATOM      7  C   UNL d   1       1.538  -0.376   0.052  0.00  0.00     0.076 A 
ATOM      8  O   UNL d   1       1.857   0.742   0.730  0.00  0.00    -0.325 OA
ATOM      9  C   UNL d   1       3.138   1.026   0.376  0.00  0.00     0.142 A 
ATOM     10  C   UNL d   1       3.611   0.092  -0.516  0.00  0.00     0.027 A 
ATOM     11  C   UNL d   1       2.554  -0.825  -0.723  0.00  0.00     0.037 A 
ENDBRANCH   1   7
TORSDOF 4
