REMARK  5 active torsions:
REMARK  status: ('A' for Active; 'I' for Inactive)
REMARK    1  A    between atoms: O_2  and  C_12 
REMARK    2  A    between atoms: N_6  and  C_9 
REMARK    3  A    between atoms: N_7  and  CA_10 
REMARK    4  A    between atoms: C_9  and  CA_10 
REMARK    5  A    between atoms: CA_10  and  C_12 
ROOT
ATOM      1  C   UNL d   1       0.714  -0.964   1.007  0.00  0.00     0.208 C 
ENDROOT
BRANCH   1   2
ATOM      2  N   UNL d   1      -0.517  -0.347   0.586  0.00  0.00    -0.194 N 
ATOM      3  O   UNL d   1      -1.500  -1.182   0.006  0.00  0.00    -0.174 OA
ATOM      4  C   UNL d   1      -2.561  -0.364  -0.308  0.00  0.00     0.391 A 
ATOM      5  O   UNL d   1      -3.595  -0.756  -0.830  0.00  0.00    -0.236 OA
ATOM      6  N   UNL d   1      -2.252   0.914   0.059  0.00  0.00    -0.251 N 
ATOM      7  C   UNL d   1      -0.992   0.949   0.614  0.00  0.00     0.351 A 
ATOM      8  H   UNL d   1      -2.857   1.718  -0.059  0.00  0.00     0.176 HD
ATOM      9  O   UNL d   1      -0.415   1.938   1.044  0.00  0.00    -0.244 OA
ENDBRANCH   1   2
BRANCH   1  10
ATOM     10  CA  UNL d   1       1.756  -0.976  -0.112  0.00  0.00     0.334 C 
BRANCH  10  11
ATOM     11  N   UNL d   1       3.005  -1.557   0.374  0.00  0.00     0.095 N 
ATOM     12  H1  UNL d   1       3.662  -1.657  -0.400  0.00  0.00     0.314 HD
ATOM     13  H2  UNL d   1       2.832  -2.500   0.721  0.00  0.00     0.314 HD
ENDBRANCH  10  11
BRANCH  10  14
ATOM     14  C   UNL d   1       2.090   0.418  -0.616  0.00  0.00     0.175 C 
ATOM     15  OXT UNL d   1       2.965   1.142  -0.160  0.00  0.00    -0.648 OA
BRANCH  14  16
ATOM     16  O   UNL d   1       1.304   0.785  -1.663  0.00  0.00    -0.775 OA
ATOM     17  H   UNL d   1       1.524   1.684  -1.988  0.00  0.00     0.167 HD
ENDBRANCH  14  16
ENDBRANCH  10  14
ENDBRANCH   1  10
TORSDOF 5
