12046149
  -OEChem-06132510543D

 42 43  0     1  0  0  0  0  0999 V2000
    1.8634   -0.9067    1.4423 O   0  0  0  0  0  0  0  0  0  0  0  0
    0.9628   -0.8421    0.3187 C   0  0  2  0  0  0  0  0  0  0  0  0
   -0.0911    0.2762    0.5869 C   0  0  2  0  0  0  0  0  0  0  0  0
   -1.3243    0.1819   -0.3550 C   0  0  1  0  0  0  0  0  0  0  0  0
    0.2947   -2.2435    0.2690 C   0  0  1  0  0  0  0  0  0  0  0  0
   -1.9207   -1.2319   -0.3576 C   0  0  0  0  0  0  0  0  0  0  0  0
   -0.8845   -2.2907   -0.7047 C   0  0  0  0  0  0  0  0  0  0  0  0
    1.7826   -0.5009   -0.9417 C   0  0  0  0  0  0  0  0  0  0  0  0
   -2.4285    1.1816    0.0192 C   0  0  0  0  0  0  0  0  0  0  0  0
    0.5335    1.6538    0.4939 C   0  0  0  0  0  0  0  0  0  0  0  0
    2.4931    0.8550   -0.8279 C   0  0  0  0  0  0  0  0  0  0  0  0
    1.2725   -3.3837   -0.0435 C   0  0  0  0  0  0  0  0  0  0  0  0
    1.6902    1.9222   -0.1344 C   0  0  0  0  0  0  0  0  0  0  0  0
   -3.5513    1.1379   -1.0102 C   0  0  0  0  0  0  0  0  0  0  0  0
   -2.9593    0.8838    1.4164 C   0  0  0  0  0  0  0  0  0  0  0  0
    2.2669    3.3071   -0.1715 C   0  0  0  0  0  0  0  0  0  0  0  0
   -0.3956    0.1438    1.6314 H   0  0  0  0  0  0  0  0  0  0  0  0
   -0.9939    0.4097   -1.3784 H   0  0  0  0  0  0  0  0  0  0  0  0
   -0.0954   -2.4549    1.2760 H   0  0  0  0  0  0  0  0  0  0  0  0
   -2.7287   -1.3237   -1.0899 H   0  0  0  0  0  0  0  0  0  0  0  0
   -2.3346   -1.5031    0.6183 H   0  0  0  0  0  0  0  0  0  0  0  0
   -1.3597   -3.2789   -0.6665 H   0  0  0  0  0  0  0  0  0  0  0  0
   -0.5404   -2.1504   -1.7364 H   0  0  0  0  0  0  0  0  0  0  0  0
    1.1374   -0.4920   -1.8278 H   0  0  0  0  0  0  0  0  0  0  0  0
    2.5588   -1.2526   -1.1250 H   0  0  0  0  0  0  0  0  0  0  0  0
   -2.0277    2.2012    0.0059 H   0  0  0  0  0  0  0  0  0  0  0  0
    0.0045    2.4625    0.9925 H   0  0  0  0  0  0  0  0  0  0  0  0
    2.7647    1.1895   -1.8364 H   0  0  0  0  0  0  0  0  0  0  0  0
    3.4320    0.7203   -0.2757 H   0  0  0  0  0  0  0  0  0  0  0  0
    2.1193   -3.3976    0.6487 H   0  0  0  0  0  0  0  0  0  0  0  0
    0.7657   -4.3510    0.0505 H   0  0  0  0  0  0  0  0  0  0  0  0
    1.6593   -3.3212   -1.0653 H   0  0  0  0  0  0  0  0  0  0  0  0
    2.6641   -1.3848    1.1694 H   0  0  0  0  0  0  0  0  0  0  0  0
   -4.1746    0.2424   -0.9264 H   0  0  0  0  0  0  0  0  0  0  0  0
   -4.2205    1.9939   -0.8639 H   0  0  0  0  0  0  0  0  0  0  0  0
   -3.1629    1.2019   -2.0321 H   0  0  0  0  0  0  0  0  0  0  0  0
   -3.4999   -0.0634    1.4907 H   0  0  0  0  0  0  0  0  0  0  0  0
   -3.6892    1.6578    1.6873 H   0  0  0  0  0  0  0  0  0  0  0  0
   -2.1938    0.9198    2.1936 H   0  0  0  0  0  0  0  0  0  0  0  0
    3.2589    3.3172    0.2918 H   0  0  0  0  0  0  0  0  0  0  0  0
    1.6420    4.0303    0.3630 H   0  0  0  0  0  0  0  0  0  0  0  0
    2.3626    3.6506   -1.2065 H   0  0  0  0  0  0  0  0  0  0  0  0
  1  2  1  0  0  0  0
  1 33  1  0  0  0  0
  2  3  1  0  0  0  0
  2  5  1  0  0  0  0
  2  8  1  0  0  0  0
  3  4  1  0  0  0  0
  3 10  1  0  0  0  0
  3 17  1  0  0  0  0
  4  6  1  0  0  0  0
  4  9  1  0  0  0  0
  4 18  1  0  0  0  0
  5  7  1  0  0  0  0
  5 12  1  0  0  0  0
  5 19  1  0  0  0  0
  6  7  1  0  0  0  0
  6 20  1  0  0  0  0
  6 21  1  0  0  0  0
  7 22  1  0  0  0  0
  7 23  1  0  0  0  0
  8 11  1  0  0  0  0
  8 24  1  0  0  0  0
  8 25  1  0  0  0  0
  9 14  1  0  0  0  0
  9 15  1  0  0  0  0
  9 26  1  0  0  0  0
 10 13  2  0  0  0  0
 10 27  1  0  0  0  0
 11 13  1  0  0  0  0
 11 28  1  0  0  0  0
 11 29  1  0  0  0  0
 12 30  1  0  0  0  0
 12 31  1  0  0  0  0
 12 32  1  0  0  0  0
 13 16  1  0  0  0  0
 14 34  1  0  0  0  0
 14 35  1  0  0  0  0
 14 36  1  0  0  0  0
 15 37  1  0  0  0  0
 15 38  1  0  0  0  0
 15 39  1  0  0  0  0
 16 40  1  0  0  0  0
 16 41  1  0  0  0  0
 16 42  1  0  0  0  0
M  END
> <PUBCHEM_COMPOUND_CID>
12046149

> <PUBCHEM_CONFORMER_RMSD>
0.6

> <PUBCHEM_CONFORMER_DIVERSEORDER>
1

> <PUBCHEM_MMFF94_PARTIAL_CHARGES>
9
1 -0.68
10 -0.29
11 0.14
13 -0.28
16 0.14
2 0.28
27 0.15
3 0.14
33 0.4

> <PUBCHEM_EFFECTIVE_ROTOR_COUNT>
2.2

> <PUBCHEM_PHARMACOPHORE_FEATURES>
5
1 1 acceptor
1 1 donor
3 9 14 15 hydrophobe
6 2 3 4 5 6 7 rings
6 2 3 8 10 11 13 rings

> <PUBCHEM_HEAVY_ATOM_COUNT>
16

> <PUBCHEM_ATOM_DEF_STEREO_COUNT>
4

> <PUBCHEM_ATOM_UDEF_STEREO_COUNT>
0

> <PUBCHEM_BOND_DEF_STEREO_COUNT>
0

> <PUBCHEM_BOND_UDEF_STEREO_COUNT>
0

> <PUBCHEM_ISOTOPIC_ATOM_COUNT>
0

> <PUBCHEM_COMPONENT_COUNT>
1

> <PUBCHEM_CACTVS_TAUTO_COUNT>
1

> <PUBCHEM_CONFORMER_ID>
00B7CF4500000001

> <PUBCHEM_MMFF94_ENERGY>
37.7208

> <PUBCHEM_FEATURE_SELFOVERLAP>
25.413

> <PUBCHEM_SHAPE_FINGERPRINT>
1 1 18409175397845014053
10967382 1 18339079259494214494
12423570 1 11297097288300274922
13132413 78 18339063909750668474
13140716 1 18412267271728977408
13380536 305 18412268302721575197
14181834 199 18115857525535876606
14614273 12 18047178932841662421
14817 1 10395240201430616121
15219459 52 18267579105267587831
15490181 7 18263647423189778177
15775835 57 18260831518097756589
16945 1 18338519625424428617
17134986 127 18335977644799043421
17357779 13 17116892740195948215
18186145 218 18341626952669755892
20510252 161 17836367425106267953
20559304 39 18266737987441096801
21041028 32 17545341682491089497
21501502 16 18052826028967663364
21524375 3 18261117429828184406
21639500 275 18337096862074175757
22112679 90 17479192868188148744
22344851 341 18341901834786777482
22802520 49 17693395729355342846
2334 1 18195527214656072041
23388829 49 17836646318665325710
23419403 2 15523585187451066487
23557571 272 17114962534849068860
23559900 14 18200607973180968484
238 59 18046875270285492941
241688 4 17329993490916310754
25 1 18336281062610428444
2748010 2 18337680839622891045
305870 269 18261946457474906384
3060560 45 18411136900877230829
31174 14 18118988926715930441
350125 39 18265339580148421251
353137 74 17905318881615787975
7364860 26 18338232657026303918
81228 2 17400090054421224368

> <PUBCHEM_SHAPE_MULTIPOLES>
323.4
4.19
3.57
1.1
2.41
1.27
0.16
-2.9
-0.53
-1.97
-0.12
0.26
-0.06
-0.35

> <PUBCHEM_SHAPE_SELFOVERLAP>
658.761

> <PUBCHEM_SHAPE_VOLUME>
187.1

> <PUBCHEM_COORDINATE_TYPE>
2
5
10

$$$$
