REMARK  9 active torsions:
REMARK  status: ('A' for Active; 'I' for Inactive)
REMARK    1  A    between atoms: S_1  and  C_13 
REMARK    2  A    between atoms: S_1  and  C_14 
REMARK    3  A    between atoms: O_2  and  C_20 
REMARK    4  A    between atoms: O_5  and  C_24 
REMARK       I    between atoms: N_9  and  C_22 
REMARK    5  A    between atoms: C_10  and  C_12 
REMARK    6  A    between atoms: C_12  and  C_20 
REMARK    7  A    between atoms: C_12  and  C_21 
REMARK    8  A    between atoms: C_16  and  C_22 
REMARK    9  A    between atoms: CA_18  and  C_24 
ROOT
ATOM      1  N   UNL d   1      -2.726   0.707   0.364  0.00  0.00    -0.378 N 
ATOM      2  C   UNL d   1      -2.383  -0.707   0.291  0.00  0.00     0.103 C 
ATOM      3  C   UNL d   1      -1.100  -0.699  -0.620  0.00  0.00     0.047 C 
ATOM      4  C   UNL d   1      -0.716   0.781  -0.637  0.00  0.00     0.018 C 
ATOM      5  CA  UNL d   1      -1.678   1.515  -0.059  0.00  0.00     0.116 C 
ATOM      6  C   UNL d   1      -1.256  -1.274  -2.025  0.00  0.00     0.017 C 
ATOM      7  H   UNL d   1      -3.272   1.059   1.153  0.00  0.00     0.160 HD
ENDROOT
BRANCH   4   8
ATOM      8  S   UNL d   1       0.767   1.341  -1.305  0.00  0.00    -0.125 SA
BRANCH   8   9
ATOM      9  C   UNL d   1       1.822   1.293   0.175  0.00  0.00     0.083 C 
ATOM     10  C   UNL d   1       2.376  -0.103   0.439  0.00  0.00     0.062 C 
ATOM     11  C   UNL d   1       3.772   0.120   1.024  0.00  0.00     0.312 C 
ATOM     12  N   UNL d   1       3.949   1.595   1.080  0.00  0.00     0.098 N 
ATOM     13  C   UNL d   1       3.077   2.138   0.028  0.00  0.00     0.286 C 
ATOM     14  H   UNL d   1       4.925   1.808   0.842  0.00  0.00     0.317 HD
BRANCH  11  15
ATOM     15  C   UNL d   1       4.893  -0.526   0.167  0.00  0.00     0.252 C 
ATOM     16  O   UNL d   1       5.755   0.181  -0.363  0.00  0.00    -0.271 OA
ATOM     17  N   UNL d   1       4.902  -1.914   0.046  0.00  0.00    -0.359 N 
ATOM     18  C   UNL d   1       3.934  -2.813   0.652  0.00  0.00     0.152 C 
ATOM     19  C   UNL d   1       5.886  -2.536  -0.826  0.00  0.00     0.152 C 
ENDBRANCH  11  15
ENDBRANCH   8   9
ENDBRANCH   4   8
BRANCH   5  20
ATOM     20  C   UNL d   1      -1.716   2.989   0.167  0.00  0.00     0.194 C 
ATOM     21  OXT UNL d   1      -0.882   3.824  -0.122  0.00  0.00    -0.645 OA
BRANCH  20  22
ATOM     22  O   UNL d   1      -2.863   3.337   0.794  0.00  0.00    -0.772 OA
ATOM     23  H   UNL d   1      -2.798   4.313   0.846  0.00  0.00     0.167 HD
ENDBRANCH  20  22
ENDBRANCH   5  20
BRANCH   2  24
ATOM     24  C   UNL d   1      -3.586  -1.552  -0.142  0.00  0.00     0.099 C 
BRANCH  24  25
ATOM     25  C   UNL d   1      -4.585  -1.860   0.992  0.00  0.00     0.126 C 
ATOM     26  C   UNL d   1      -4.073  -2.959   1.919  0.00  0.00     0.040 C 
BRANCH  25  27
ATOM     27  O   UNL d   1      -4.847  -0.697   1.776  0.00  0.00    -0.395 OA
ATOM     28  H   UNL d   1      -5.519  -0.932   2.442  0.00  0.00     0.210 HD
ENDBRANCH  25  27
ENDBRANCH  24  25
BRANCH  24  29
ATOM     29  C   UNL d   1      -4.363  -0.859  -1.240  0.00  0.00     0.240 C 
ATOM     30  O   UNL d   1      -4.554  -1.372  -2.341  0.00  0.00    -0.306 OA
ENDBRANCH  24  29
ENDBRANCH   2  24
TORSDOF 9
