@<TRIPOS>MOLECULE
10225
 33 34 0 0 0
SMALL
GASTEIGER

@<TRIPOS>ATOM
      1 C           2.2649   -1.3649    0.0004 C.3     1  UNL1       -0.0209
      2 C           1.3502   -0.1416    0.0013 C.ar    1  UNL1       -0.0371
      3 C          -0.0722   -0.2392    0.0023 C.ar    1  UNL1       -0.0140
      4 C          -0.8533    0.9517    0.0018 C.ar    1  UNL1       -0.0147
      5 C          -0.2101    2.2170    0.0021 C.ar    1  UNL1       -0.0427
      6 C           1.9498    1.1307    0.0016 C.ar    1  UNL1       -0.0575
      7 C          -0.7639   -1.4756   -0.0027 C.ar    1  UNL1       -0.0508
      8 C           3.1210   -1.4218    1.2678 C.3     1  UNL1       -0.0586
      9 C           3.1206   -1.4220   -1.2671 C.3     1  UNL1       -0.0586
     10 C           1.1858    2.2889    0.0009 C.ar    1  UNL1       -0.0580
     11 C          -2.2611    0.8359    0.0040 C.ar    1  UNL1       -0.0535
     12 C          -2.1599   -1.5695   -0.0114 C.ar    1  UNL1       -0.0498
     13 C          -2.9069   -0.4019   -0.0008 C.ar    1  UNL1       -0.0582
     14 C          -0.9854    3.5094    0.0009 C.3     1  UNL1       -0.0391
     15 C          -2.8065   -2.9196   -0.0014 C.3     1  UNL1       -0.0397
     16 H           1.6866   -2.2890    0.0009 H       1  UNL1        0.0344
     17 H           3.0335    1.2302    0.0007 H       1  UNL1        0.0621
     18 H          -0.2260   -2.4179   -0.0007 H       1  UNL1        0.0626
     19 H           3.8323   -0.5917    1.3252 H       1  UNL1        0.0235
     20 H           3.6937   -2.3548    1.2988 H       1  UNL1        0.0235
     21 H           2.4900   -1.3868    2.1633 H       1  UNL1        0.0235
     22 H           2.4894   -1.3874   -2.1625 H       1  UNL1        0.0235
     23 H           3.6933   -2.3549   -1.2983 H       1  UNL1        0.0235
     24 H           3.8315   -0.5918   -1.3252 H       1  UNL1        0.0235
     25 H           1.6908    3.2522   -0.0002 H       1  UNL1        0.0620
     26 H          -2.8909    1.7224    0.0061 H       1  UNL1        0.0624
     27 H          -3.9936   -0.4387    0.0027 H       1  UNL1        0.0620
     28 H          -1.6102    3.5778    0.8972 H       1  UNL1        0.0278
     29 H          -0.3202    4.3799    0.0000 H       1  UNL1        0.0278
     30 H          -1.6109    3.5767   -0.8953 H       1  UNL1        0.0278
     31 H          -2.6514   -3.4026    0.9683 H       1  UNL1        0.0278
     32 H          -3.8845   -2.8470   -0.1832 H       1  UNL1        0.0278
     33 H          -2.3801   -3.5505   -0.7880 H       1  UNL1        0.0278
@<TRIPOS>BOND
     1     1     2    1
     2     1     8    1
     3     1     9    1
     4     1    16    1
     5     2     3   ar
     6     2     6   ar
     7     3     4   ar
     8     3     7   ar
     9     4     5   ar
    10     4    11   ar
    11     5    10   ar
    12     5    14    1
    13     6    10   ar
    14     6    17    1
    15     7    12   ar
    16     7    18    1
    17     8    19    1
    18     8    20    1
    19     8    21    1
    20     9    22    1
    21     9    23    1
    22     9    24    1
    23    10    25    1
    24    11    13   ar
    25    11    26    1
    26    12    13   ar
    27    12    15    1
    28    13    27    1
    29    14    28    1
    30    14    29    1
    31    14    30    1
    32    15    31    1
    33    15    32    1
    34    15    33    1
