@<TRIPOS>MOLECULE
12302243
 35 36 0 0 0
SMALL
GASTEIGER

@<TRIPOS>ATOM
      1 C          -1.1883    0.7983   -0.6703 C.3     1  UNL1       -0.0095
      2 C          -1.7988    1.4725    0.6056 C.3     1  UNL1       -0.0396
      3 C          -2.0709   -0.3314   -1.2482 C.3     1  UNL1       -0.0271
      4 C           0.2070    0.2425   -0.4008 C.ar    1  UNL1       -0.0361
      5 C           0.3714   -1.0913    0.0331 C.ar    1  UNL1       -0.0189
      6 C          -1.9470   -1.6191   -0.4874 C.2     1  UNL1       -0.0799
      7 C          -0.8088   -1.9899    0.1249 C.2     1  UNL1       -0.0469
      8 C          -0.9354    2.6345    1.1238 C.3     1  UNL1       -0.0621
      9 C          -3.2132    2.0121    0.3478 C.3     1  UNL1       -0.0621
     10 C           1.3287    1.0800   -0.5376 C.ar    1  UNL1       -0.0548
     11 C           1.6632   -1.5301    0.3602 C.ar    1  UNL1       -0.0538
     12 C           2.6107    0.6314   -0.2084 C.ar    1  UNL1       -0.0501
     13 C          -0.6991   -3.3025    0.8435 C.3     1  UNL1       -0.0394
     14 C           2.7671   -0.6767    0.2520 C.ar    1  UNL1       -0.0583
     15 C           3.7781    1.5706   -0.2654 C.3     1  UNL1       -0.0397
     16 H          -1.1099    1.5651   -1.4542 H       1  UNL1        0.0354
     17 H          -1.8661    0.7338    1.4147 H       1  UNL1        0.0301
     18 H          -1.7777   -0.5324   -2.2884 H       1  UNL1        0.0313
     19 H          -3.1218   -0.0332   -1.2942 H       1  UNL1        0.0313
     20 H          -2.8159   -2.2720   -0.4793 H       1  UNL1        0.0575
     21 H          -0.7025    3.3443    0.3230 H       1  UNL1        0.0233
     22 H          -1.4478    3.1854    1.9202 H       1  UNL1        0.0233
     23 H           0.0027    2.2732    1.5541 H       1  UNL1        0.0233
     24 H          -3.2509    2.5997   -0.5754 H       1  UNL1        0.0233
     25 H          -3.5498    2.6543    1.1690 H       1  UNL1        0.0233
     26 H          -3.9406    1.1986    0.2719 H       1  UNL1        0.0233
     27 H           1.1933    2.1067   -0.8720 H       1  UNL1        0.0623
     28 H           1.8396   -2.5451    0.7035 H       1  UNL1        0.0624
     29 H          -0.0076   -3.9741    0.3235 H       1  UNL1        0.0278
     30 H          -1.6654   -3.8155    0.9014 H       1  UNL1        0.0278
     31 H          -0.3495   -3.1567    1.8711 H       1  UNL1        0.0278
     32 H           3.7510   -1.0464    0.5320 H       1  UNL1        0.0620
     33 H           4.7119    1.0272   -0.4391 H       1  UNL1        0.0278
     34 H           3.6606    2.2891   -1.0832 H       1  UNL1        0.0278
     35 H           3.8595    2.1201    0.6779 H       1  UNL1        0.0278
@<TRIPOS>BOND
     1     1     2    1
     2     1     3    1
     3     1     4    1
     4     1    16    1
     5     2     8    1
     6     2     9    1
     7     2    17    1
     8     3     6    1
     9     3    18    1
    10     3    19    1
    11     4     5   ar
    12     4    10   ar
    13     5     7    1
    14     5    11   ar
    15     6     7    2
    16     6    20    1
    17     7    13    1
    18     8    21    1
    19     8    22    1
    20     8    23    1
    21     9    24    1
    22     9    25    1
    23     9    26    1
    24    10    12   ar
    25    10    27    1
    26    11    14   ar
    27    11    28    1
    28    12    14   ar
    29    12    15    1
    30    13    29    1
    31    13    30    1
    32    13    31    1
    33    14    32    1
    34    15    33    1
    35    15    34    1
    36    15    35    1
