@<TRIPOS>MOLECULE
12921
 55 55 0 0 0
SMALL
GASTEIGER

@<TRIPOS>ATOM
      1 O          -7.9173    2.3407   -0.0201 O.3     1  UNL1       -0.4806
      2 O          -5.8977    3.2743   -0.2510 O.2     1  UNL1       -0.2510
      3 C           2.4744   -3.6501   -0.0759 C.2     1  UNL1       -0.0660
      4 C           1.2507   -4.0716   -0.0056 C.2     1  UNL1       -0.0660
      5 C           2.2768   -5.0810   -0.0766 C.3     1  UNL1       -0.0100
      6 C           3.5544   -2.6846   -0.1296 C.3     1  UNL1       -0.0312
      7 C          -0.1912   -3.9456    0.0781 C.3     1  UNL1       -0.0312
      8 C           3.0734   -1.2314   -0.0369 C.3     1  UNL1       -0.0493
      9 C          -0.6369   -2.4780    0.0614 C.3     1  UNL1       -0.0493
     10 C           4.2436   -0.2365   -0.0673 C.3     1  UNL1       -0.0528
     11 C          -2.1596   -2.3309    0.1585 C.3     1  UNL1       -0.0528
     12 C           3.7503    1.2152    0.0008 C.3     1  UNL1       -0.0530
     13 C          -2.5952   -0.8621    0.0728 C.3     1  UNL1       -0.0530
     14 C           4.9059    2.2225   -0.0329 C.3     1  UNL1       -0.0531
     15 C          -4.1193   -0.7247    0.1500 C.3     1  UNL1       -0.0526
     16 C           4.4057    3.6720    0.0126 C.3     1  UNL1       -0.0533
     17 C          -4.5681    0.7351    0.0242 C.3     1  UNL1       -0.0430
     18 C           5.5721    4.6635    0.0421 C.3     1  UNL1       -0.0559
     19 C          -6.0898    0.8526    0.0711 C.3     1  UNL1        0.0448
     20 C           5.0908    6.1047    0.1194 C.3     1  UNL1       -0.0653
     21 C          -6.5703    2.2750   -0.0840 C.2     1  UNL1        0.3047
     22 H           2.5186   -5.6093    0.8327 H       1  UNL1        0.0355
     23 H           2.4075   -5.5923   -1.0181 H       1  UNL1        0.0355
     24 H           4.2548   -2.8868    0.6891 H       1  UNL1        0.0310
     25 H           4.1102   -2.8225   -1.0645 H       1  UNL1        0.0310
     26 H          -0.6529   -4.4779   -0.7626 H       1  UNL1        0.0310
     27 H          -0.5484   -4.4303    0.9942 H       1  UNL1        0.0310
     28 H           2.5030   -1.0890    0.8898 H       1  UNL1        0.0268
     29 H           2.3917   -1.0158   -0.8695 H       1  UNL1        0.0268
     30 H          -0.2853   -2.0028   -0.8628 H       1  UNL1        0.0268
     31 H          -0.1690   -1.9427    0.8972 H       1  UNL1        0.0268
     32 H           4.9153   -0.4359    0.7770 H       1  UNL1        0.0265
     33 H           4.8273   -0.3831   -0.9844 H       1  UNL1        0.0265
     34 H          -2.5099   -2.7605    1.1048 H       1  UNL1        0.0265
     35 H          -2.6354   -2.8976   -0.6507 H       1  UNL1        0.0265
     36 H           3.1717    1.3584    0.9214 H       1  UNL1        0.0265
     37 H           3.0739    1.4087   -0.8403 H       1  UNL1        0.0265
     38 H          -2.2376   -0.4281   -0.8689 H       1  UNL1        0.0265
     39 H          -2.1338   -0.2906    0.8873 H       1  UNL1        0.0265
     40 H           5.4982    2.0735   -0.9438 H       1  UNL1        0.0265
     41 H           5.5720    2.0414    0.8193 H       1  UNL1        0.0265
     42 H          -4.5796   -1.3168   -0.6504 H       1  UNL1        0.0265
     43 H          -4.4765   -1.1368    1.1014 H       1  UNL1        0.0265
     44 H           3.7785    3.8196    0.9001 H       1  UNL1        0.0265
     45 H           3.7769    3.8730   -0.8636 H       1  UNL1        0.0265
     46 H          -4.1255    1.3307    0.8327 H       1  UNL1        0.0270
     47 H          -4.1958    1.1563   -0.9182 H       1  UNL1        0.0270
     48 H           6.1889    4.5395   -0.8556 H       1  UNL1        0.0263
     49 H           6.2135    4.4566    0.9068 H       1  UNL1        0.0263
     50 H          -6.5326    0.2588   -0.7348 H       1  UNL1        0.0377
     51 H          -6.4587    0.4744    1.0345 H       1  UNL1        0.0377
     52 H           5.9453    6.7890    0.1411 H       1  UNL1        0.0230
     53 H           4.4736    6.3613   -0.7474 H       1  UNL1        0.0230
     54 H           4.5001    6.2739    1.0254 H       1  UNL1        0.0230
     55 H          -8.1256    3.2926   -0.1338 H       1  UNL1        0.2951
@<TRIPOS>BOND
     1     1    21    1
     2     1    55    1
     3     2    21    2
     4     3     4    2
     5     3     5    1
     6     3     6    1
     7     4     5    1
     8     4     7    1
     9     5    22    1
    10     5    23    1
    11     6     8    1
    12     6    24    1
    13     6    25    1
    14     7     9    1
    15     7    26    1
    16     7    27    1
    17     8    10    1
    18     8    28    1
    19     8    29    1
    20     9    11    1
    21     9    30    1
    22     9    31    1
    23    10    12    1
    24    10    32    1
    25    10    33    1
    26    11    13    1
    27    11    34    1
    28    11    35    1
    29    12    14    1
    30    12    36    1
    31    12    37    1
    32    13    15    1
    33    13    38    1
    34    13    39    1
    35    14    16    1
    36    14    40    1
    37    14    41    1
    38    15    17    1
    39    15    42    1
    40    15    43    1
    41    16    18    1
    42    16    44    1
    43    16    45    1
    44    17    19    1
    45    17    46    1
    46    17    47    1
    47    18    20    1
    48    18    48    1
    49    18    49    1
    50    19    21    1
    51    19    50    1
    52    19    51    1
    53    20    52    1
    54    20    53    1
    55    20    54    1
