@<TRIPOS>MOLECULE
101286238
 44 44 0 0 0
SMALL
GASTEIGER

@<TRIPOS>ATOM
      1 O          -1.6725   -0.5066   -0.0340 O.3     1  UNL1       -0.3315
      2 O          -0.3636    1.3837   -0.2941 O.3     1  UNL1       -0.3460
      3 O          -5.1763    1.6584   -0.6550 O.3     1  UNL1       -0.3864
      4 O          -2.7015    3.0524   -0.0307 O.3     1  UNL1       -0.3841
      5 O          -5.3156   -0.9937    0.4591 O.3     1  UNL1       -0.3860
      6 O           1.7855    3.0529   -0.2239 O.3     1  UNL1       -0.3869
      7 O           4.4136    2.0481    0.0023 O.3     1  UNL1       -0.3865
      8 O           4.9441   -0.1172    1.5338 O.3     1  UNL1       -0.3861
      9 O          -3.7360   -3.3602    0.6774 O.3     1  UNL1       -0.4788
     10 O          -2.0026   -3.1366   -0.6952 O.2     1  UNL1       -0.2480
     11 O           4.8523   -0.3747   -1.3678 O.3     1  UNL1       -0.3819
     12 O           5.3636   -2.8373   -0.2357 O.2     1  UNL1       -0.2982
     13 C          -4.0838    1.0481    0.0444 C.3     1  UNL1        0.1145
     14 C          -2.7475    1.6589   -0.3889 C.3     1  UNL1        0.1341
     15 C          -4.1199   -0.4786   -0.1413 C.3     1  UNL1        0.1201
     16 C          -1.5829    0.8805    0.2528 C.3     1  UNL1        0.1886
     17 C          -2.8636   -1.1312    0.4535 C.3     1  UNL1        0.1859
     18 C           2.0187    1.6303   -0.1774 C.3     1  UNL1        0.1069
     19 C           0.7813    1.0077    0.4783 C.3     1  UNL1        0.0792
     20 C           3.3115    1.3575    0.6144 C.3     1  UNL1        0.1118
     21 C           3.6956   -0.1343    0.7963 C.3     1  UNL1        0.1159
     22 C          -2.8050   -2.6072    0.0564 C.2     1  UNL1        0.3367
     23 C           3.8653   -0.9301   -0.5165 C.3     1  UNL1        0.1381
     24 C           4.2275   -2.3769   -0.1758 C.2     1  UNL1        0.1512
     25 H          -4.2652    1.2909    1.0992 H       1  UNL1        0.0648
     26 H          -2.6618    1.6254   -1.4833 H       1  UNL1        0.0671
     27 H          -4.1933   -0.7052   -1.2118 H       1  UNL1        0.0652
     28 H          -1.5846    1.0431    1.3387 H       1  UNL1        0.0938
     29 H          -2.8587   -1.0879    1.5497 H       1  UNL1        0.0741
     30 H           2.1194    1.3070   -1.2194 H       1  UNL1        0.0643
     31 H           0.6596    1.4091    1.4917 H       1  UNL1        0.0587
     32 H           0.8572   -0.0827    0.5207 H       1  UNL1        0.0587
     33 H           3.2155    1.8166    1.6061 H       1  UNL1        0.0647
     34 H           2.9551   -0.6274    1.4369 H       1  UNL1        0.0650
     35 H          -5.0343    1.5514   -1.6117 H       1  UNL1        0.2100
     36 H          -2.8497    3.1470    0.9219 H       1  UNL1        0.2101
     37 H          -5.3686   -0.7062    1.3868 H       1  UNL1        0.2100
     38 H           2.9271   -0.9639   -1.0744 H       1  UNL1        0.0697
     39 H           0.9728    3.1664   -0.7539 H       1  UNL1        0.2100
     40 H           5.1939    1.8165    0.5407 H       1  UNL1        0.2100
     41 H           5.1798   -1.0297    1.7862 H       1  UNL1        0.2100
     42 H          -3.6292   -4.2537    0.2880 H       1  UNL1        0.2951
     43 H           3.3967   -2.9873    0.2121 H       1  UNL1        0.1055
     44 H           5.6657   -0.2716   -0.8395 H       1  UNL1        0.2105
@<TRIPOS>BOND
     1     1    16    1
     2     1    17    1
     3     2    16    1
     4     2    19    1
     5     3    13    1
     6     3    35    1
     7     4    14    1
     8     4    36    1
     9     5    15    1
    10     5    37    1
    11     6    18    1
    12     6    39    1
    13     7    20    1
    14     7    40    1
    15     8    21    1
    16     8    41    1
    17     9    22    1
    18     9    42    1
    19    10    22    2
    20    11    23    1
    21    11    44    1
    22    12    24    2
    23    13    14    1
    24    13    15    1
    25    13    25    1
    26    14    16    1
    27    14    26    1
    28    15    17    1
    29    15    27    1
    30    16    28    1
    31    17    22    1
    32    17    29    1
    33    18    19    1
    34    18    20    1
    35    18    30    1
    36    19    31    1
    37    19    32    1
    38    20    21    1
    39    20    33    1
    40    21    23    1
    41    21    34    1
    42    23    24    1
    43    23    38    1
    44    24    43    1
