@<TRIPOS>MOLECULE
10026486
 61 63 0 0 0
SMALL
GASTEIGER

@<TRIPOS>ATOM
      1 O           3.8899   -1.1736   -0.1611 O.3     1  UNL1       -0.4629
      2 O          -0.3533   -0.1415    2.0087 O.2     1  UNL1       -0.2738
      3 O          -2.3198    0.3516   -1.4530 O.2     1  UNL1       -0.2702
      4 O           5.8418   -1.0276    1.0371 O.2     1  UNL1       -0.2512
      5 N           1.1323   -0.4582    0.2817 N.am    1  UNL1       -0.3074
      6 N          -1.7748    1.6507    0.3548 N.am    1  UNL1       -0.2997
      7 C           1.7087   -1.7226    0.7444 C.3     1  UNL1        0.0612
      8 C          -0.3366    1.4894    0.1927 C.3     1  UNL1        0.1036
      9 C           1.5287   -2.8136   -0.3311 C.3     1  UNL1       -0.0060
     10 C           0.4015    2.6981    0.7846 C.3     1  UNL1       -0.0006
     11 C           0.1104    0.2050    0.9218 C.2     1  UNL1        0.2340
     12 C           3.2017   -1.5208    1.0542 C.3     1  UNL1        0.1110
     13 C           0.1277   -3.3700   -0.3806 C.ar    1  UNL1       -0.0455
     14 C           1.7900    2.8704    0.2223 C.ar    1  UNL1       -0.0451
     15 C          -0.8480   -2.7886   -1.2005 C.ar    1  UNL1       -0.0585
     16 C          -0.2219   -4.4669    0.4189 C.ar    1  UNL1       -0.0585
     17 C          -2.6643    1.0003   -0.4721 C.2     1  UNL1        0.2447
     18 C           2.8937    2.2817    0.8509 C.ar    1  UNL1       -0.0585
     19 C           1.9853    3.6056   -0.9536 C.ar    1  UNL1       -0.0585
     20 C          -2.1448   -3.3022   -1.2275 C.ar    1  UNL1       -0.0615
     21 C          -1.5172   -4.9805    0.3884 C.ar    1  UNL1       -0.0615
     22 C          -4.1053    1.1822   -0.1483 C.ar    1  UNL1        0.0367
     23 C           4.1714    2.4244    0.3114 C.ar    1  UNL1       -0.0615
     24 C           3.2648    3.7517   -1.4884 C.ar    1  UNL1       -0.0615
     25 C          -2.4798   -4.3997   -0.4368 C.ar    1  UNL1       -0.0617
     26 C           4.3569    3.1580   -0.8583 C.ar    1  UNL1       -0.0617
     27 C           5.2207   -0.9438   -0.0133 C.2     1  UNL1        0.3040
     28 C          -5.0373    1.1089   -1.1902 C.ar    1  UNL1       -0.0496
     29 C          -4.5453    1.4423    1.1575 C.ar    1  UNL1       -0.0496
     30 C           5.8312   -0.5938   -1.3348 C.3     1  UNL1        0.0332
     31 C          -6.3922    1.3251   -0.9337 C.ar    1  UNL1       -0.0610
     32 C          -5.8992    1.6654    1.4079 C.ar    1  UNL1       -0.0610
     33 C          -6.8198    1.6094    0.3631 C.ar    1  UNL1       -0.0617
     34 H           1.2082   -2.0233    1.6721 H       1  UNL1        0.0535
     35 H          -0.1302    1.3865   -0.8794 H       1  UNL1        0.0598
     36 H           2.2188   -3.6454   -0.1398 H       1  UNL1        0.0332
     37 H           1.7950   -2.4272   -1.3240 H       1  UNL1        0.0332
     38 H           1.5058   -0.0693   -0.5770 H       1  UNL1        0.1492
     39 H          -0.1653    3.6172    0.5807 H       1  UNL1        0.0336
     40 H           0.4529    2.6295    1.8796 H       1  UNL1        0.0336
     41 H           3.3280   -0.7172    1.7888 H       1  UNL1        0.0716
     42 H           3.6280   -2.4472    1.4578 H       1  UNL1        0.0716
     43 H          -2.0971    2.0916    1.2027 H       1  UNL1        0.1498
     44 H          -0.6159   -1.9205   -1.8135 H       1  UNL1        0.0620
     45 H           0.5152   -4.9257    1.0751 H       1  UNL1        0.0620
     46 H           2.7655    1.7051    1.7651 H       1  UNL1        0.0620
     47 H           1.1430    4.0780   -1.4551 H       1  UNL1        0.0620
     48 H          -2.8953   -2.8321   -1.8584 H       1  UNL1        0.0618
     49 H          -1.7790   -5.8300    1.0126 H       1  UNL1        0.0618
     50 H           5.0224    1.9651    0.8087 H       1  UNL1        0.0618
     51 H           3.4101    4.3351   -2.3944 H       1  UNL1        0.0618
     52 H          -3.4903   -4.7937   -0.4560 H       1  UNL1        0.0618
     53 H           5.3541    3.2750   -1.2746 H       1  UNL1        0.0618
     54 H          -4.7077    0.8954   -2.2050 H       1  UNL1        0.0625
     55 H          -3.8563    1.4548    1.9959 H       1  UNL1        0.0625
     56 H           5.9040   -1.4892   -1.9567 H       1  UNL1        0.0342
     57 H           6.8313   -0.1810   -1.1744 H       1  UNL1        0.0342
     58 H           5.2277    0.1682   -1.8348 H       1  UNL1        0.0342
     59 H          -7.1124    1.2754   -1.7464 H       1  UNL1        0.0618
     60 H          -6.2338    1.8761    2.4204 H       1  UNL1        0.0618
     61 H          -7.8751    1.7799    0.5624 H       1  UNL1        0.0618
@<TRIPOS>BOND
     1     1    12    1
     2     1    27    1
     3     2    11    2
     4     3    17    2
     5     4    27    2
     6     5     7    1
     7     5    11   am
     8     5    38    1
     9     6     8    1
    10     6    17   am
    11     6    43    1
    12     7     9    1
    13     7    12    1
    14     7    34    1
    15     8    10    1
    16     8    11    1
    17     8    35    1
    18     9    13    1
    19     9    36    1
    20     9    37    1
    21    10    14    1
    22    10    39    1
    23    10    40    1
    24    12    41    1
    25    12    42    1
    26    13    15   ar
    27    13    16   ar
    28    14    18   ar
    29    14    19   ar
    30    15    20   ar
    31    15    44    1
    32    16    21   ar
    33    16    45    1
    34    17    22    1
    35    18    23   ar
    36    18    46    1
    37    19    24   ar
    38    19    47    1
    39    20    25   ar
    40    20    48    1
    41    21    25   ar
    42    21    49    1
    43    22    28   ar
    44    22    29   ar
    45    23    26   ar
    46    23    50    1
    47    24    26   ar
    48    24    51    1
    49    25    52    1
    50    26    53    1
    51    27    30    1
    52    28    31   ar
    53    28    54    1
    54    29    32   ar
    55    29    55    1
    56    30    56    1
    57    30    57    1
    58    30    58    1
    59    31    33   ar
    60    31    59    1
    61    32    33   ar
    62    32    60    1
    63    33    61    1
