@<TRIPOS>MOLECULE
92231
 40 42 0 0 0
SMALL
GASTEIGER

@<TRIPOS>ATOM
      1 O           1.1882   -2.2114   -1.4323 O.3     1  UNL1       -0.3885
      2 C          -1.0008   -0.2906    0.6386 C.3     1  UNL1       -0.0263
      3 C          -2.3342   -0.2771   -0.0914 C.3     1  UNL1       -0.0283
      4 C          -1.8089    0.9862    0.5741 C.3     1  UNL1       -0.0316
      5 C           0.3122   -0.3960   -0.0874 C.3     1  UNL1       -0.0023
      6 C           1.3536    0.5685    0.5311 C.3     1  UNL1       -0.0144
      7 C           0.9601   -1.8122   -0.0730 C.3     1  UNL1        0.0670
      8 C          -1.3243    2.1797   -0.1943 C.3     1  UNL1       -0.0457
      9 C          -3.4870   -0.9802    0.5770 C.3     1  UNL1       -0.0593
     10 C          -2.3806   -0.3840   -1.5960 C.3     1  UNL1       -0.0593
     11 C           2.6782   -0.1671    0.2937 C.3     1  UNL1       -0.0436
     12 C           2.3232   -1.6189    0.6032 C.3     1  UNL1       -0.0234
     13 C          -0.0346    2.7570    0.3943 C.3     1  UNL1       -0.0314
     14 C           1.2250    1.9960    0.0044 C.2     1  UNL1       -0.0732
     15 C           0.1715   -2.9457    0.5815 C.3     1  UNL1       -0.0358
     16 C           2.1625    2.6086   -0.7420 C.2     1  UNL1       -0.0992
     17 H          -0.9487   -0.7324    1.6312 H       1  UNL1        0.0313
     18 H          -2.2770    1.3017    1.5035 H       1  UNL1        0.0309
     19 H           0.1910   -0.1074   -1.1353 H       1  UNL1        0.0337
     20 H           1.2024    0.6191    1.6196 H       1  UNL1        0.0349
     21 H          -2.1127    2.9404   -0.1409 H       1  UNL1        0.0271
     22 H          -1.1798    1.9748   -1.2581 H       1  UNL1        0.0271
     23 H          -3.4399   -0.9046    1.6683 H       1  UNL1        0.0235
     24 H          -4.4333   -0.5391    0.2480 H       1  UNL1        0.0235
     25 H          -3.4827   -2.0421    0.3108 H       1  UNL1        0.0235
     26 H          -1.5763    0.1407   -2.1159 H       1  UNL1        0.0235
     27 H          -2.3168   -1.4348   -1.8928 H       1  UNL1        0.0235
     28 H          -3.3203    0.0346   -1.9667 H       1  UNL1        0.0235
     29 H           3.4753    0.2065    0.9442 H       1  UNL1        0.0272
     30 H           3.0131   -0.0890   -0.7474 H       1  UNL1        0.0272
     31 H           3.0905   -2.2982    0.2204 H       1  UNL1        0.0293
     32 H           2.2476   -1.7442    1.6889 H       1  UNL1        0.0293
     33 H          -0.0999    2.8036    1.4885 H       1  UNL1        0.0310
     34 H           0.0417    3.7952    0.0458 H       1  UNL1        0.0310
     35 H           0.7053   -3.8970    0.4657 H       1  UNL1        0.0257
     36 H           0.0118   -2.7816    1.6504 H       1  UNL1        0.0257
     37 H          -0.8004   -3.0821    0.0947 H       1  UNL1        0.0257
     38 H           0.3240   -2.2837   -1.8676 H       1  UNL1        0.2102
     39 H           3.0870    2.1243   -1.0372 H       1  UNL1        0.0534
     40 H           2.0315    3.6293   -1.0872 H       1  UNL1        0.0534
@<TRIPOS>BOND
     1     1     7    1
     2     1    38    1
     3     2     3    1
     4     2     4    1
     5     2     5    1
     6     2    17    1
     7     3     4    1
     8     3     9    1
     9     3    10    1
    10     4     8    1
    11     4    18    1
    12     5     6    1
    13     5     7    1
    14     5    19    1
    15     6    11    1
    16     6    14    1
    17     6    20    1
    18     7    12    1
    19     7    15    1
    20     8    13    1
    21     8    21    1
    22     8    22    1
    23     9    23    1
    24     9    24    1
    25     9    25    1
    26    10    26    1
    27    10    27    1
    28    10    28    1
    29    11    12    1
    30    11    29    1
    31    11    30    1
    32    12    31    1
    33    12    32    1
    34    13    14    1
    35    13    33    1
    36    13    34    1
    37    14    16    2
    38    15    35    1
    39    15    36    1
    40    15    37    1
    41    16    39    1
    42    16    40    1
