@<TRIPOS>MOLECULE
6987
 27 27 0 0 0
SMALL
GASTEIGER

@<TRIPOS>ATOM
      1 O          -0.4274   -2.3413   -0.5383 O.2     1  UNL1       -0.2924
      2 C          -0.8090    0.0418   -0.6931 C.3     1  UNL1        0.0241
      3 C          -1.6693    0.4382    0.5330 C.3     1  UNL1       -0.0369
      4 C           0.1360    1.1465   -1.1916 C.3     1  UNL1       -0.0393
      5 C           1.2718    1.4356   -0.2111 C.3     1  UNL1       -0.0310
      6 C           0.0209   -1.2044   -0.3998 C.2     1  UNL1        0.1593
      7 C           1.9595    0.1761    0.2486 C.2     1  UNL1       -0.0693
      8 C          -2.4853    1.7079    0.2633 C.3     1  UNL1       -0.0620
      9 C          -2.6248   -0.6925    0.9377 C.3     1  UNL1       -0.0620
     10 C           1.3946   -1.0382    0.1376 C.2     1  UNL1       -0.0199
     11 C           3.3300    0.3503    0.8335 C.3     1  UNL1       -0.0434
     12 H          -1.4744   -0.2111   -1.5315 H       1  UNL1        0.0383
     13 H          -1.0192    0.6323    1.3957 H       1  UNL1        0.0302
     14 H          -0.4075    2.0705   -1.4151 H       1  UNL1        0.0275
     15 H           0.5768    0.8262   -2.1467 H       1  UNL1        0.0275
     16 H           0.8952    1.9801    0.6646 H       1  UNL1        0.0310
     17 H           1.9945    2.0928   -0.7094 H       1  UNL1        0.0310
     18 H          -1.8372    2.5880    0.1992 H       1  UNL1        0.0233
     19 H          -3.1997    1.8992    1.0689 H       1  UNL1        0.0233
     20 H          -3.0455    1.6259   -0.6748 H       1  UNL1        0.0233
     21 H          -2.0751   -1.5471    1.3442 H       1  UNL1        0.0233
     22 H          -3.3203   -0.3638    1.7164 H       1  UNL1        0.0233
     23 H          -3.2146   -1.0408    0.0816 H       1  UNL1        0.0233
     24 H           1.8900   -1.9508    0.4468 H       1  UNL1        0.0652
     25 H           3.7634   -0.6024    1.1587 H       1  UNL1        0.0274
     26 H           3.2902    1.0126    1.7041 H       1  UNL1        0.0274
     27 H           4.0069    0.7871    0.0921 H       1  UNL1        0.0274
@<TRIPOS>BOND
     1     1     6    2
     2     2     3    1
     3     2     4    1
     4     2     6    1
     5     2    12    1
     6     3     8    1
     7     3     9    1
     8     3    13    1
     9     4     5    1
    10     4    14    1
    11     4    15    1
    12     5     7    1
    13     5    16    1
    14     5    17    1
    15     6    10    1
    16     7    10    2
    17     7    11    1
    18     8    18    1
    19     8    19    1
    20     8    20    1
    21     9    21    1
    22     9    22    1
    23     9    23    1
    24    10    24    1
    25    11    25    1
    26    11    26    1
    27    11    27    1
