@<TRIPOS>MOLECULE
5280460
 22 23 0 0 0
SMALL
GASTEIGER

@<TRIPOS>ATOM
      1 O          -1.9798    1.0746   -0.1115 O.2     1  UNL1       -0.4220
      2 O           3.2467   -0.7308    0.3796 O.3     1  UNL1       -0.4914
      3 O           2.6943    1.9761    0.1012 O.3     1  UNL1       -0.5032
      4 O          -4.2271    0.6155   -0.2136 O.2     1  UNL1       -0.2452
      5 C          -0.4137   -0.7854    0.1154 C.ar    1  UNL1        0.0213
      6 C          -0.6592    0.5841   -0.0029 C.ar    1  UNL1        0.1427
      7 C           0.9082   -1.2343    0.2209 C.ar    1  UNL1       -0.0056
      8 C           1.9560   -0.3105    0.1880 C.ar    1  UNL1        0.1621
      9 C           0.3759    1.5161   -0.0148 C.ar    1  UNL1        0.0265
     10 C           1.6832    1.0572    0.0893 C.ar    1  UNL1        0.1620
     11 C          -1.5477   -1.7014    0.1276 C.ar    1  UNL1       -0.0442
     12 C          -2.7881   -1.2224    0.0186 C.ar    1  UNL1        0.0236
     13 C          -3.0738    0.2176   -0.1112 C.ar    1  UNL1        0.3372
     14 C           3.8848   -1.0518   -0.8587 C.3     1  UNL1        0.0790
     15 H           1.1284   -2.2914    0.3407 H       1  UNL1        0.0662
     16 H           0.1679    2.5782   -0.0942 H       1  UNL1        0.0692
     17 H          -1.3626   -2.7640    0.2244 H       1  UNL1        0.0627
     18 H          -3.6518   -1.8744    0.0187 H       1  UNL1        0.0689
     19 H           3.5159    1.4770    0.2637 H       1  UNL1        0.2923
     20 H           4.9101   -1.3602   -0.6281 H       1  UNL1        0.0660
     21 H           3.9404   -0.1775   -1.5160 H       1  UNL1        0.0660
     22 H           3.3877   -1.8849   -1.3661 H       1  UNL1        0.0660
@<TRIPOS>BOND
     1     1     6   ar
     2     1    13   ar
     3     2     8    1
     4     2    14    1
     5     3    10    1
     6     3    19    1
     7     4    13    2
     8     5     6   ar
     9     5     7   ar
    10     5    11   ar
    11     6     9   ar
    12     7     8   ar
    13     7    15    1
    14     8    10   ar
    15     9    10   ar
    16     9    16    1
    17    11    12   ar
    18    11    17    1
    19    12    13   ar
    20    12    18    1
    21    14    20    1
    22    14    21    1
    23    14    22    1
