@<TRIPOS>MOLECULE
11276107
 42 44 0 0 0
SMALL
GASTEIGER

@<TRIPOS>ATOM
      1 O          -1.7230    2.5331    0.5936 O.3     1  UNL1       -0.3885
      2 C          -0.7334   -0.7044   -0.5242 C.3     1  UNL1       -0.0174
      3 C          -0.8401    0.3208    0.5620 C.3     1  UNL1       -0.0026
      4 C           0.3711    0.3308   -0.3569 C.3     1  UNL1       -0.0258
      5 C          -2.0463    1.1837    0.2980 C.3     1  UNL1        0.0669
      6 C          -0.4270   -2.1635   -0.2468 C.3     1  UNL1       -0.0376
      7 C          -1.8253   -0.4093   -1.5431 C.3     1  UNL1       -0.0439
      8 C           1.7242   -0.0123    0.2384 C.3     1  UNL1       -0.0350
      9 C          -2.3177    1.0093   -1.2096 C.3     1  UNL1       -0.0234
     10 C           0.8631   -2.3621    0.5630 C.3     1  UNL1       -0.0497
     11 C           2.0113   -1.5099    0.0304 C.3     1  UNL1       -0.0494
     12 C           2.8595    0.8899   -0.3339 C.3     1  UNL1       -0.0436
     13 C          -3.2390    0.7520    1.1479 C.3     1  UNL1       -0.0358
     14 C          -1.5805   -2.8731    0.4678 C.3     1  UNL1       -0.0619
     15 C           2.5937    2.3812   -0.0714 C.3     1  UNL1       -0.0624
     16 C           4.2313    0.5373    0.2567 C.3     1  UNL1       -0.0624
     17 H          -0.7066    0.0488    1.6003 H       1  UNL1        0.0337
     18 H           0.4347    1.0844   -1.1325 H       1  UNL1        0.0313
     19 H          -0.2815   -2.6530   -1.2190 H       1  UNL1        0.0304
     20 H          -2.6582   -1.1123   -1.4510 H       1  UNL1        0.0272
     21 H          -1.4427   -0.4665   -2.5664 H       1  UNL1        0.0272
     22 H           1.6778    0.1725    1.3208 H       1  UNL1        0.0306
     23 H          -1.7465    1.7472   -1.7878 H       1  UNL1        0.0293
     24 H          -3.3699    1.1524   -1.4766 H       1  UNL1        0.0293
     25 H           1.1520   -3.4200    0.5274 H       1  UNL1        0.0268
     26 H           0.6949   -2.1201    1.6203 H       1  UNL1        0.0268
     27 H           2.9209   -1.8008    0.5660 H       1  UNL1        0.0268
     28 H           2.1734   -1.7258   -1.0330 H       1  UNL1        0.0268
     29 H           2.9135    0.7477   -1.4215 H       1  UNL1        0.0298
     30 H          -3.0152    0.8659    2.2147 H       1  UNL1        0.0257
     31 H          -4.1122    1.3803    0.9417 H       1  UNL1        0.0257
     32 H          -3.5120   -0.2930    0.9704 H       1  UNL1        0.0257
     33 H          -1.8058   -2.3990    1.4292 H       1  UNL1        0.0233
     34 H          -2.4966   -2.8579   -0.1298 H       1  UNL1        0.0233
     35 H          -1.3332   -3.9233    0.6575 H       1  UNL1        0.0233
     36 H          -2.4777    3.0805    0.3213 H       1  UNL1        0.2102
     37 H           2.4334    2.5731    0.9949 H       1  UNL1        0.0232
     38 H           3.4432    2.9913   -0.4007 H       1  UNL1        0.0232
     39 H           1.7187    2.7420   -0.6172 H       1  UNL1        0.0232
     40 H           4.2075    0.5606    1.3512 H       1  UNL1        0.0232
     41 H           4.9968    1.2461   -0.0783 H       1  UNL1        0.0232
     42 H           4.5620   -0.4561   -0.0607 H       1  UNL1        0.0232
@<TRIPOS>BOND
     1     1     5    1
     2     1    36    1
     3     2     3    1
     4     2     4    1
     5     2     6    1
     6     2     7    1
     7     3     4    1
     8     3     5    1
     9     3    17    1
    10     4     8    1
    11     4    18    1
    12     5     9    1
    13     5    13    1
    14     6    10    1
    15     6    14    1
    16     6    19    1
    17     7     9    1
    18     7    20    1
    19     7    21    1
    20     8    11    1
    21     8    12    1
    22     8    22    1
    23     9    23    1
    24     9    24    1
    25    10    11    1
    26    10    25    1
    27    10    26    1
    28    11    27    1
    29    11    28    1
    30    12    15    1
    31    12    16    1
    32    12    29    1
    33    13    30    1
    34    13    31    1
    35    13    32    1
    36    14    33    1
    37    14    34    1
    38    14    35    1
    39    15    37    1
    40    15    38    1
    41    15    39    1
    42    16    40    1
    43    16    41    1
    44    16    42    1
