@<TRIPOS>MOLECULE
10659
 30 31 0 0 0
SMALL
GASTEIGER

@<TRIPOS>ATOM
      1 O          -0.9886   -2.3972   -0.0927 O.3     1  UNL1       -0.4488
      2 O          -2.7677   -0.8640    0.4283 O.3     1  UNL1       -0.4488
      3 O           1.7452   -1.4820   -0.7378 O.3     1  UNL1       -0.4910
      4 O          -2.3650    2.0100    0.5780 O.3     1  UNL1       -0.4913
      5 C           0.9488    0.7380   -0.4124 C.ar    1  UNL1        0.0053
      6 C          -0.5678   -1.0999   -0.1152 C.ar    1  UNL1        0.2115
      7 C          -1.5910   -0.2247    0.1776 C.ar    1  UNL1        0.2112
      8 C           0.7131   -0.6498   -0.4001 C.ar    1  UNL1        0.1690
      9 C          -1.3849    1.1407    0.1951 C.ar    1  UNL1        0.1658
     10 C          -0.1062    1.6241   -0.0868 C.ar    1  UNL1       -0.0091
     11 C           2.3217    1.2982   -0.7112 C.3     1  UNL1       -0.0060
     12 C          -2.3753   -2.2374    0.2567 C.3     1  UNL1        0.2336
     13 C           3.1760    1.4199    0.5206 C.2     1  UNL1       -0.0867
     14 C           2.0139   -2.4649    0.2607 C.3     1  UNL1        0.0790
     15 C          -3.1285    2.4389   -0.5481 C.3     1  UNL1        0.0790
     16 C           4.3630    0.8181    0.6756 C.2     1  UNL1       -0.1023
     17 H           0.0749    2.6957   -0.0471 H       1  UNL1        0.0659
     18 H           2.8134    0.6895   -1.4803 H       1  UNL1        0.0357
     19 H           2.2148    2.2957   -1.1599 H       1  UNL1        0.0357
     20 H          -2.5665   -2.7770    1.1914 H       1  UNL1        0.1166
     21 H          -2.9890   -2.6824   -0.5353 H       1  UNL1        0.1166
     22 H           2.7954    2.0478    1.3231 H       1  UNL1        0.0570
     23 H           3.0543   -2.7824    0.1390 H       1  UNL1        0.0660
     24 H           1.3806   -3.3451    0.1177 H       1  UNL1        0.0660
     25 H           1.9043   -2.0676    1.2764 H       1  UNL1        0.0660
     26 H          -3.9102    3.1130   -0.1830 H       1  UNL1        0.0660
     27 H          -3.6172    1.5960   -1.0491 H       1  UNL1        0.0660
     28 H          -2.5076    2.9985   -1.2558 H       1  UNL1        0.0660
     29 H           4.9377    0.9483    1.5872 H       1  UNL1        0.0532
     30 H           4.7833    0.1825   -0.0981 H       1  UNL1        0.0532
@<TRIPOS>BOND
     1     1     6    1
     2     1    12    1
     3     2     7    1
     4     2    12    1
     5     3     8    1
     6     3    14    1
     7     4     9    1
     8     4    15    1
     9     5     8   ar
    10     5    10   ar
    11     5    11    1
    12     6     7   ar
    13     6     8   ar
    14     7     9   ar
    15     9    10   ar
    16    10    17    1
    17    11    13    1
    18    11    18    1
    19    11    19    1
    20    12    20    1
    21    12    21    1
    22    13    16    2
    23    13    22    1
    24    14    23    1
    25    14    24    1
    26    14    25    1
    27    15    26    1
    28    15    27    1
    29    15    28    1
    30    16    29    1
    31    16    30    1
