@<TRIPOS>MOLECULE
72326
 82 86 0 0 0
SMALL
GASTEIGER

@<TRIPOS>ATOM
      1 O          -6.0056    1.3789    1.0864 O.3     1  UNL1       -0.3912
      2 O           4.7895   -2.8542    1.4363 O.3     1  UNL1       -0.3945
      3 C          -0.5849   -0.9776    0.1177 C.3     1  UNL1       -0.0231
      4 C           0.8976   -0.8924   -0.5560 C.3     1  UNL1       -0.0233
      5 C          -1.2440    0.4608    0.0731 C.3     1  UNL1       -0.0294
      6 C           1.7544    0.1781    0.2448 C.3     1  UNL1       -0.0312
      7 C          -2.7965    0.5696    0.4158 C.3     1  UNL1       -0.0252
      8 C           3.2109    0.1997   -0.2537 C.3     1  UNL1       -0.0235
      9 C           3.8898   -1.1777   -0.0782 C.3     1  UNL1       -0.0024
     10 C          -3.5618   -0.5069   -0.4301 C.3     1  UNL1       -0.0278
     11 C           1.6396   -2.2752   -0.5500 C.3     1  UNL1       -0.0463
     12 C          -1.4988   -1.9711   -0.6491 C.3     1  UNL1       -0.0466
     13 C          -0.3574    1.4966    0.7993 C.3     1  UNL1       -0.0489
     14 C           1.0688    1.5462    0.2542 C.3     1  UNL1       -0.0491
     15 C           3.1319   -2.2060   -0.9385 C.3     1  UNL1       -0.0445
     16 C          -2.9738   -1.9185   -0.2367 C.3     1  UNL1       -0.0486
     17 C           4.2385    1.1722    0.3637 C.3     1  UNL1       -0.0167
     18 C          -5.1401   -0.4496   -0.3469 C.3     1  UNL1       -0.0056
     19 C          -3.2984    1.9935   -0.0222 C.3     1  UNL1       -0.0447
     20 C           5.3060   -0.8462   -0.5847 C.3     1  UNL1       -0.0445
     21 C          -0.4681   -1.5097    1.5780 C.3     1  UNL1       -0.0588
     22 C           0.8010   -0.4817   -2.0687 C.3     1  UNL1       -0.0588
     23 C           5.6107    0.5325    0.0214 C.3     1  UNL1       -0.0457
     24 C          -3.0626    0.4355    1.9332 C.3     1  UNL1       -0.0590
     25 C          -5.6528    1.0231   -0.2476 C.3     1  UNL1        0.0606
     26 C          -4.6315    2.0235   -0.7779 C.3     1  UNL1       -0.0258
     27 C           3.9931   -1.6762    1.3848 C.3     1  UNL1        0.0501
     28 C           4.1500    2.5954   -0.1412 C.2     1  UNL1       -0.0763
     29 C          -5.7009   -1.0310   -1.6778 C.3     1  UNL1       -0.0572
     30 C          -5.7276   -1.3192    0.7846 C.3     1  UNL1       -0.0572
     31 C           4.2758    2.8051   -1.6262 C.3     1  UNL1       -0.0438
     32 C           3.9673    3.6253    0.7030 C.2     1  UNL1       -0.0994
     33 H          -1.2200    0.7573   -0.9825 H       1  UNL1        0.0312
     34 H           1.7994   -0.1289    1.2938 H       1  UNL1        0.0309
     35 H           3.1826    0.4231   -1.3261 H       1  UNL1        0.0315
     36 H          -3.3236   -0.2536   -1.4766 H       1  UNL1        0.0312
     37 H           1.1436   -2.9651   -1.2419 H       1  UNL1        0.0271
     38 H           1.5806   -2.7498    0.4301 H       1  UNL1        0.0271
     39 H          -1.1366   -2.9977   -0.5182 H       1  UNL1        0.0271
     40 H          -1.4724   -1.7724   -1.7231 H       1  UNL1        0.0271
     41 H          -0.3106    1.2829    1.8685 H       1  UNL1        0.0268
     42 H          -0.7866    2.5037    0.7146 H       1  UNL1        0.0268
     43 H           1.0710    1.9968   -0.7490 H       1  UNL1        0.0268
     44 H           1.6230    2.2334    0.9029 H       1  UNL1        0.0268
     45 H           3.5792   -3.2036   -0.8378 H       1  UNL1        0.0272
     46 H           3.2255   -1.9577   -1.9925 H       1  UNL1        0.0272
     47 H          -3.5098   -2.6394   -0.8638 H       1  UNL1        0.0268
     48 H          -3.0989   -2.2679    0.7917 H       1  UNL1        0.0268
     49 H           4.1158    1.1686    1.4555 H       1  UNL1        0.0348
     50 H          -2.5682    2.4809   -0.6810 H       1  UNL1        0.0271
     51 H          -3.3704    2.6512    0.8548 H       1  UNL1        0.0271
     52 H           5.3192   -0.7684   -1.6786 H       1  UNL1        0.0272
     53 H           6.0673   -1.5776   -0.2997 H       1  UNL1        0.0272
     54 H          -1.4335   -1.6485    2.0574 H       1  UNL1        0.0235
     55 H          -0.0099   -2.5012    1.6153 H       1  UNL1        0.0235
     56 H           0.1093   -0.8570    2.2350 H       1  UNL1        0.0235
     57 H           1.7799   -0.4086   -2.5500 H       1  UNL1        0.0235
     58 H           0.2575   -1.2272   -2.6540 H       1  UNL1        0.0235
     59 H           0.3205    0.4856   -2.2324 H       1  UNL1        0.0235
     60 H           6.1944    0.4267    0.9419 H       1  UNL1        0.0271
     61 H           6.2354    1.1193   -0.6619 H       1  UNL1        0.0271
     62 H          -4.0205    0.8693    2.2251 H       1  UNL1        0.0235
     63 H          -3.0955   -0.5982    2.2742 H       1  UNL1        0.0235
     64 H          -2.3172    0.9639    2.5331 H       1  UNL1        0.0235
     65 H          -6.5771    1.1309   -0.8288 H       1  UNL1        0.0599
     66 H          -5.0361    3.0411   -0.7148 H       1  UNL1        0.0290
     67 H          -4.4474    1.8299   -1.8434 H       1  UNL1        0.0290
     68 H           3.0237   -1.9062    1.8325 H       1  UNL1        0.0563
     69 H           4.4737   -0.9424    2.0384 H       1  UNL1        0.0563
     70 H          -6.7972   -1.0092   -1.6855 H       1  UNL1        0.0236
     71 H          -5.3552   -0.4547   -2.5433 H       1  UNL1        0.0236
     72 H          -5.4020   -2.0728   -1.8293 H       1  UNL1        0.0236
     73 H          -6.8197   -1.2242    0.8194 H       1  UNL1        0.0236
     74 H          -5.5091   -2.3821    0.6358 H       1  UNL1        0.0236
     75 H          -5.3453   -1.0400    1.7688 H       1  UNL1        0.0236
     76 H          -6.3336    2.2942    1.0723 H       1  UNL1        0.2098
     77 H           4.2244   -3.5975    1.1666 H       1  UNL1        0.2094
     78 H           3.3889    2.4248   -2.1434 H       1  UNL1        0.0274
     79 H           4.3779    3.8689   -1.8719 H       1  UNL1        0.0274
     80 H           5.1549    2.2987   -2.0373 H       1  UNL1        0.0274
     81 H           3.8914    4.6458    0.3425 H       1  UNL1        0.0534
     82 H           3.8613    3.4775    1.7749 H       1  UNL1        0.0534
@<TRIPOS>BOND
     1     1    25    1
     2     1    76    1
     3     2    27    1
     4     2    77    1
     5     3     4    1
     6     3     5    1
     7     3    12    1
     8     3    21    1
     9     4     6    1
    10     4    11    1
    11     4    22    1
    12     5     7    1
    13     5    13    1
    14     5    33    1
    15     6     8    1
    16     6    14    1
    17     6    34    1
    18     7    10    1
    19     7    19    1
    20     7    24    1
    21     8     9    1
    22     8    17    1
    23     8    35    1
    24     9    15    1
    25     9    20    1
    26     9    27    1
    27    10    16    1
    28    10    18    1
    29    10    36    1
    30    11    15    1
    31    11    37    1
    32    11    38    1
    33    12    16    1
    34    12    39    1
    35    12    40    1
    36    13    14    1
    37    13    41    1
    38    13    42    1
    39    14    43    1
    40    14    44    1
    41    15    45    1
    42    15    46    1
    43    16    47    1
    44    16    48    1
    45    17    23    1
    46    17    28    1
    47    17    49    1
    48    18    25    1
    49    18    29    1
    50    18    30    1
    51    19    26    1
    52    19    50    1
    53    19    51    1
    54    20    23    1
    55    20    52    1
    56    20    53    1
    57    21    54    1
    58    21    55    1
    59    21    56    1
    60    22    57    1
    61    22    58    1
    62    22    59    1
    63    23    60    1
    64    23    61    1
    65    24    62    1
    66    24    63    1
    67    24    64    1
    68    25    26    1
    69    25    65    1
    70    26    66    1
    71    26    67    1
    72    27    68    1
    73    27    69    1
    74    28    31    1
    75    28    32    2
    76    29    70    1
    77    29    71    1
    78    29    72    1
    79    30    73    1
    80    30    74    1
    81    30    75    1
    82    31    78    1
    83    31    79    1
    84    31    80    1
    85    32    81    1
    86    32    82    1
