@<TRIPOS>MOLECULE
91354
 39 41 0 0 0
SMALL
GASTEIGER

@<TRIPOS>ATOM
      1 C           0.9878   -0.2547   -0.5113 C.3     1  UNL1       -0.0287
      2 C           2.2931    0.1757    0.1497 C.3     1  UNL1       -0.0284
      3 C           1.4448    1.1842   -0.6196 C.3     1  UNL1       -0.0317
      4 C          -0.2583   -0.5930    0.2585 C.3     1  UNL1       -0.0284
      5 C          -1.5074    0.0150   -0.4355 C.3     1  UNL1       -0.0168
      6 C           0.6808    2.3050    0.0288 C.3     1  UNL1       -0.0457
      7 C          -0.5523   -2.1089    0.4116 C.3     1  UNL1       -0.0402
      8 C           2.4047    0.2409    1.6541 C.3     1  UNL1       -0.0593
      9 C           3.5750   -0.2904   -0.5015 C.3     1  UNL1       -0.0593
     10 C          -2.6040   -1.0185   -0.1475 C.3     1  UNL1       -0.0460
     11 C          -1.8677   -2.3374   -0.3367 C.3     1  UNL1       -0.0496
     12 C          -0.7313    2.4734   -0.5477 C.3     1  UNL1       -0.0314
     13 C          -1.7456    1.4616   -0.0290 C.2     1  UNL1       -0.0732
     14 C           0.5380   -3.0875   -0.0013 C.3     1  UNL1       -0.0621
     15 C          -2.7870    1.8752    0.7146 C.2     1  UNL1       -0.0992
     16 H           1.0397   -0.8106   -1.4441 H       1  UNL1        0.0312
     17 H           1.8006    1.4975   -1.5992 H       1  UNL1        0.0309
     18 H          -0.2051   -0.1872    1.2765 H       1  UNL1        0.0312
     19 H          -1.3571    0.0135   -1.5264 H       1  UNL1        0.0348
     20 H           1.2429    3.2282   -0.1601 H       1  UNL1        0.0271
     21 H           0.6234    2.2069    1.1159 H       1  UNL1        0.0271
     22 H          -0.7510   -2.2867    1.4787 H       1  UNL1        0.0301
     23 H           1.5048    0.5965    2.1576 H       1  UNL1        0.0235
     24 H           2.6265   -0.7542    2.0553 H       1  UNL1        0.0235
     25 H           3.2191    0.9149    1.9403 H       1  UNL1        0.0235
     26 H           3.8453   -1.2863   -0.1350 H       1  UNL1        0.0235
     27 H           3.4887   -0.3459   -1.5920 H       1  UNL1        0.0235
     28 H           4.3920    0.3981   -0.2633 H       1  UNL1        0.0235
     29 H          -3.4565   -0.9222   -0.8262 H       1  UNL1        0.0271
     30 H          -2.9705   -0.9527    0.8838 H       1  UNL1        0.0271
     31 H          -2.4307   -3.1834    0.0696 H       1  UNL1        0.0268
     32 H          -1.6897   -2.5242   -1.4027 H       1  UNL1        0.0268
     33 H          -0.7076    2.4285   -1.6430 H       1  UNL1        0.0310
     34 H          -1.0696    3.4880   -0.2944 H       1  UNL1        0.0310
     35 H           1.4697   -2.8863    0.5360 H       1  UNL1        0.0233
     36 H           0.2349   -4.1139    0.2349 H       1  UNL1        0.0233
     37 H           0.7403   -3.0481   -1.0762 H       1  UNL1        0.0233
     38 H          -3.5407    1.1967    1.0971 H       1  UNL1        0.0534
     39 H          -2.9159    2.9221    0.9751 H       1  UNL1        0.0534
@<TRIPOS>BOND
     1     1     2    1
     2     1     3    1
     3     1     4    1
     4     1    16    1
     5     2     3    1
     6     2     8    1
     7     2     9    1
     8     3     6    1
     9     3    17    1
    10     4     5    1
    11     4     7    1
    12     4    18    1
    13     5    10    1
    14     5    13    1
    15     5    19    1
    16     6    12    1
    17     6    20    1
    18     6    21    1
    19     7    11    1
    20     7    14    1
    21     7    22    1
    22     8    23    1
    23     8    24    1
    24     8    25    1
    25     9    26    1
    26     9    27    1
    27     9    28    1
    28    10    11    1
    29    10    29    1
    30    10    30    1
    31    11    31    1
    32    11    32    1
    33    12    13    1
    34    12    33    1
    35    12    34    1
    36    13    15    2
    37    14    35    1
    38    14    36    1
    39    14    37    1
    40    15    38    1
    41    15    39    1
