@<TRIPOS>MOLECULE
6452077
 42 43 0 0 0
SMALL
GASTEIGER

@<TRIPOS>ATOM
      1 O           0.8547    2.1570    0.7089 O.3     1  UNL1       -0.3909
      2 C          -0.9751   -1.0973   -0.1404 C.3     1  UNL1       -0.0232
      3 C          -0.7566    0.3479    0.4050 C.3     1  UNL1        0.0115
      4 C           0.6465    0.8950    0.0599 C.3     1  UNL1        0.0652
      5 C           1.7652   -0.0673    0.5221 C.3     1  UNL1       -0.0120
      6 C           0.1575   -2.0151    0.3699 C.3     1  UNL1       -0.0467
      7 C           1.5442   -1.5016    0.0242 C.3     1  UNL1       -0.0471
      8 C          -2.3231   -1.6423    0.4103 C.3     1  UNL1       -0.0467
      9 C          -1.9466    1.2228    0.0180 C.2     1  UNL1       -0.0706
     10 C          -3.5171   -0.7248    0.1253 C.3     1  UNL1       -0.0489
     11 C          -1.0071   -1.1427   -1.6895 C.3     1  UNL1       -0.0589
     12 C           3.1576    0.4467    0.0924 C.3     1  UNL1       -0.0415
     13 C          -3.2600    0.7158    0.5642 C.3     1  UNL1       -0.0316
     14 C           4.2605   -0.4208    0.7023 C.3     1  UNL1       -0.0623
     15 C           3.2801    0.4831   -1.4317 C.3     1  UNL1       -0.0623
     16 C          -1.9000    2.3275   -0.7450 C.2     1  UNL1       -0.0991
     17 H          -0.7852    0.3030    1.5044 H       1  UNL1        0.0376
     18 H           0.7039    1.0770   -1.0148 H       1  UNL1        0.0602
     19 H           1.7549   -0.0808    1.6235 H       1  UNL1        0.0328
     20 H           0.0480   -3.0241   -0.0400 H       1  UNL1        0.0271
     21 H           0.0965   -2.1129    1.4597 H       1  UNL1        0.0271
     22 H           2.2792   -2.1760    0.4787 H       1  UNL1        0.0269
     23 H           1.6889   -1.5792   -1.0563 H       1  UNL1        0.0269
     24 H          -2.2455   -1.7709    1.4985 H       1  UNL1        0.0271
     25 H          -2.5276   -2.6378   -0.0029 H       1  UNL1        0.0271
     26 H          -4.4012   -1.1095    0.6469 H       1  UNL1        0.0268
     27 H          -3.7581   -0.7482   -0.9441 H       1  UNL1        0.0268
     28 H          -0.0821   -0.7701   -2.1383 H       1  UNL1        0.0235
     29 H          -1.1479   -2.1713   -2.0417 H       1  UNL1        0.0235
     30 H          -1.8212   -0.5445   -2.1092 H       1  UNL1        0.0235
     31 H           3.2970    1.4665    0.4756 H       1  UNL1        0.0299
     32 H          -3.2298    0.7685    1.6594 H       1  UNL1        0.0310
     33 H          -4.0989    1.3443    0.2439 H       1  UNL1        0.0310
     34 H           0.7672    2.0142    1.6662 H       1  UNL1        0.2098
     35 H           4.3122   -1.4113    0.2398 H       1  UNL1        0.0232
     36 H           5.2347    0.0551    0.5508 H       1  UNL1        0.0232
     37 H           4.1151   -0.5482    1.7797 H       1  UNL1        0.0232
     38 H           3.2353   -0.5100   -1.8849 H       1  UNL1        0.0232
     39 H           4.2516    0.9064   -1.7035 H       1  UNL1        0.0232
     40 H           2.5248    1.1137   -1.9034 H       1  UNL1        0.0232
     41 H          -0.9756    2.7093   -1.1651 H       1  UNL1        0.0535
     42 H          -2.8014    2.8883   -0.9757 H       1  UNL1        0.0535
@<TRIPOS>BOND
     1     1     4    1
     2     1    34    1
     3     2     3    1
     4     2     6    1
     5     2     8    1
     6     2    11    1
     7     3     4    1
     8     3     9    1
     9     3    17    1
    10     4     5    1
    11     4    18    1
    12     5     7    1
    13     5    12    1
    14     5    19    1
    15     6     7    1
    16     6    20    1
    17     6    21    1
    18     7    22    1
    19     7    23    1
    20     8    10    1
    21     8    24    1
    22     8    25    1
    23     9    13    1
    24     9    16    2
    25    10    13    1
    26    10    26    1
    27    10    27    1
    28    11    28    1
    29    11    29    1
    30    11    30    1
    31    12    14    1
    32    12    15    1
    33    12    31    1
    34    13    32    1
    35    13    33    1
    36    14    35    1
    37    14    36    1
    38    14    37    1
    39    15    38    1
    40    15    39    1
    41    15    40    1
    42    16    41    1
    43    16    42    1
