@<TRIPOS>MOLECULE
108065
 71 76 0 0 0
SMALL
GASTEIGER

@<TRIPOS>ATOM
      1 O           3.6266   -0.5740   -1.0887 O.3     1  UNL1       -0.4811
      2 O          -1.5020    0.7204    0.6538 O.3     1  UNL1       -0.4808
      3 O           0.9435   -1.6630   -1.1861 O.3     1  UNL1       -0.3868
      4 O          -3.5971    2.7175    0.9757 O.3     1  UNL1       -0.3875
      5 O           3.0126    2.1691    1.0859 O.3     1  UNL1       -0.5062
      6 O          -0.2355    3.7146    4.1981 O.3     1  UNL1       -0.5063
      7 O           0.6256    3.1850   -1.9527 O.3     1  UNL1       -0.5062
      8 O           4.9421    2.9608   -3.8791 O.3     1  UNL1       -0.5065
      9 O          -4.7430   -0.1721   -3.1026 O.3     1  UNL1       -0.5032
     10 O          -6.3724   -2.7739    0.5681 O.3     1  UNL1       -0.5032
     11 O          -6.5081   -2.1373   -2.0528 O.3     1  UNL1       -0.4885
     12 O           4.2986   -6.2005    1.7450 O.3     1  UNL1       -0.5068
     13 C           1.0327    0.6466   -0.4546 C.3     1  UNL1        0.0528
     14 C           1.3937   -0.8116   -0.1071 C.3     1  UNL1        0.1074
     15 C           0.7372    1.4660    0.8113 C.ar    1  UNL1        0.0463
     16 C           2.9117   -0.9351    0.1047 C.3     1  UNL1        0.1517
     17 C           2.0424    1.2698   -1.4039 C.ar    1  UNL1        0.0461
     18 C          -0.5779    1.4769    1.3289 C.ar    1  UNL1        0.1355
     19 C          -0.9152    2.2502    2.4526 C.ar    1  UNL1        0.0387
     20 C          -3.3234    1.7238    1.9763 C.3     1  UNL1        0.1004
     21 C          -2.7234    0.4481    1.3597 C.3     1  UNL1        0.1514
     22 C          -2.3236    2.2792    2.9868 C.3     1  UNL1        0.0092
     23 C           3.2770    0.6367   -1.6282 C.ar    1  UNL1        0.1323
     24 C           1.7123    2.2046    1.5005 C.ar    1  UNL1        0.1277
     25 C           3.3077   -2.3467    0.5203 C.ar    1  UNL1       -0.0046
     26 C           0.0899    2.9818    3.0905 C.ar    1  UNL1        0.1271
     27 C           1.7970    2.4862   -2.0656 C.ar    1  UNL1        0.1276
     28 C           1.3981    2.9661    2.6247 C.ar    1  UNL1        0.0221
     29 C          -3.7038   -0.2441    0.4241 C.ar    1  UNL1        0.0023
     30 C           4.2324    1.2066   -2.4718 C.ar    1  UNL1        0.0221
     31 C           2.7568    3.0670   -2.8942 C.ar    1  UNL1        0.0218
     32 C           3.9717    2.4234   -3.0858 C.ar    1  UNL1        0.1238
     33 C           3.3181   -2.6985    1.8813 C.ar    1  UNL1       -0.0515
     34 C           3.6338   -3.3277   -0.4300 C.ar    1  UNL1       -0.0515
     35 C          -4.5925   -1.2114    0.9256 C.ar    1  UNL1       -0.0095
     36 C          -3.7711    0.0927   -0.9387 C.ar    1  UNL1       -0.0095
     37 C           3.6555   -3.9952    2.2764 C.ar    1  UNL1       -0.0198
     38 C           3.9698   -4.6240   -0.0349 C.ar    1  UNL1       -0.0198
     39 C          -4.6878   -0.5368   -1.7847 C.ar    1  UNL1        0.1625
     40 C          -5.5117   -1.8305    0.0735 C.ar    1  UNL1        0.1625
     41 C           3.9780   -4.9459    1.3171 C.ar    1  UNL1        0.1169
     42 C          -5.5553   -1.5144   -1.2877 C.ar    1  UNL1        0.2031
     43 C          -5.9514   -2.8136   -3.1763 C.3     1  UNL1        0.0791
     44 H           0.1113    0.6024   -1.0534 H       1  UNL1        0.0429
     45 H           0.8483   -1.1487    0.7823 H       1  UNL1        0.0643
     46 H           3.2533   -0.2705    0.9061 H       1  UNL1        0.0811
     47 H          -4.2736    1.5048    2.4773 H       1  UNL1        0.0637
     48 H          -2.4736   -0.2680    2.1569 H       1  UNL1        0.0811
     49 H          -2.3489    1.6707    3.8994 H       1  UNL1        0.0342
     50 H          -2.6013    3.3078    3.2463 H       1  UNL1        0.0342
     51 H           2.1708    3.5315    3.1344 H       1  UNL1        0.0691
     52 H           1.5530   -1.5142   -1.9328 H       1  UNL1        0.2100
     53 H           5.1839    0.7088   -2.6346 H       1  UNL1        0.0691
     54 H           2.5373    4.0154   -3.3734 H       1  UNL1        0.0691
     55 H           3.0629   -1.9667    2.6437 H       1  UNL1        0.0623
     56 H           3.6225   -3.0870   -1.4910 H       1  UNL1        0.0623
     57 H          -3.9863    3.4880    1.4239 H       1  UNL1        0.2100
     58 H          -4.5632   -1.4753    1.9773 H       1  UNL1        0.0659
     59 H          -3.1078    0.8623   -1.3254 H       1  UNL1        0.0659
     60 H           3.5171    2.8935    1.4908 H       1  UNL1        0.2921
     61 H           0.5544    4.1843    4.5142 H       1  UNL1        0.2921
     62 H           0.0184    2.7316   -1.3449 H       1  UNL1        0.2921
     63 H           3.6630   -4.2635    3.3289 H       1  UNL1        0.0654
     64 H           4.2147   -5.3605   -0.7935 H       1  UNL1        0.0654
     65 H           4.6121    3.7987   -4.2440 H       1  UNL1        0.2921
     66 H          -4.1038    0.5427   -3.2543 H       1  UNL1        0.2923
     67 H          -6.2210   -2.8819    1.5187 H       1  UNL1        0.2923
     68 H           4.4852   -6.7494    0.9661 H       1  UNL1        0.2921
     69 H          -5.9562   -2.1614   -4.0544 H       1  UNL1        0.0660
     70 H          -6.5943   -3.6708   -3.3988 H       1  UNL1        0.0660
     71 H          -4.9420   -3.1964   -2.9843 H       1  UNL1        0.0660
@<TRIPOS>BOND
     1     1    16    1
     2     1    23    1
     3     2    18    1
     4     2    21    1
     5     3    14    1
     6     3    52    1
     7     4    20    1
     8     4    57    1
     9     5    24    1
    10     5    60    1
    11     6    26    1
    12     6    61    1
    13     7    27    1
    14     7    62    1
    15     8    32    1
    16     8    65    1
    17     9    39    1
    18     9    66    1
    19    10    40    1
    20    10    67    1
    21    11    42    1
    22    11    43    1
    23    12    41    1
    24    12    68    1
    25    13    14    1
    26    13    15    1
    27    13    17    1
    28    13    44    1
    29    14    16    1
    30    14    45    1
    31    15    18   ar
    32    15    24   ar
    33    16    25    1
    34    16    46    1
    35    17    23   ar
    36    17    27   ar
    37    18    19   ar
    38    19    22    1
    39    19    26   ar
    40    20    21    1
    41    20    22    1
    42    20    47    1
    43    21    29    1
    44    21    48    1
    45    22    49    1
    46    22    50    1
    47    23    30   ar
    48    24    28   ar
    49    25    33   ar
    50    25    34   ar
    51    26    28   ar
    52    27    31   ar
    53    28    51    1
    54    29    35   ar
    55    29    36   ar
    56    30    32   ar
    57    30    53    1
    58    31    32   ar
    59    31    54    1
    60    33    37   ar
    61    33    55    1
    62    34    38   ar
    63    34    56    1
    64    35    40   ar
    65    35    58    1
    66    36    39   ar
    67    36    59    1
    68    37    41   ar
    69    37    63    1
    70    38    41   ar
    71    38    64    1
    72    39    42   ar
    73    40    42   ar
    74    43    69    1
    75    43    70    1
    76    43    71    1
