@<TRIPOS>MOLECULE
5280863
 31 33 0 0 0
SMALL
GASTEIGER

@<TRIPOS>ATOM
      1 O          -0.1184   -0.8900    0.0030 O.2     1  UNL1       -0.4507
      2 O           1.0022    2.6440   -0.0064 O.3     1  UNL1       -0.5007
      3 O          -4.1878    1.7638    0.0031 O.3     1  UNL1       -0.5058
      4 O          -1.8016    2.8161    0.0020 O.2     1  UNL1       -0.2830
      5 O          -4.3448   -2.9848    0.0007 O.3     1  UNL1       -0.5065
      6 O           6.1753   -0.8532   -0.0316 O.3     1  UNL1       -0.5068
      7 C          -2.1070    0.5007    0.0011 C.ar    1  UNL1        0.1092
      8 C          -1.4812   -0.7426    0.0012 C.ar    1  UNL1        0.1465
      9 C           0.6675    0.2480    0.0004 C.ar    1  UNL1        0.1806
     10 C          -1.2712    1.7084    0.0002 C.ar    1  UNL1        0.2379
     11 C           0.2045    1.5134   -0.0025 C.ar    1  UNL1        0.2082
     12 C           2.1038   -0.0553    0.0036 C.ar    1  UNL1        0.0213
     13 C          -3.5051    0.5767    0.0018 C.ar    1  UNL1        0.1348
     14 C          -2.2452   -1.9099    0.0010 C.ar    1  UNL1        0.0231
     15 C          -3.6347   -1.8208    0.0012 C.ar    1  UNL1        0.1239
     16 C          -4.2741   -0.5848    0.0017 C.ar    1  UNL1        0.0223
     17 C           2.7960   -0.1783    1.2162 C.ar    1  UNL1       -0.0475
     18 C           2.7959   -0.1997   -1.2054 C.ar    1  UNL1       -0.0475
     19 C           4.1667   -0.4471    1.2207 C.ar    1  UNL1       -0.0195
     20 C           4.1655   -0.4675   -1.1994 C.ar    1  UNL1       -0.0195
     21 C           4.8389   -0.5898    0.0108 C.ar    1  UNL1        0.1169
     22 H          -1.7641   -2.8842    0.0001 H       1  UNL1        0.0691
     23 H          -5.3566   -0.5044    0.0019 H       1  UNL1        0.0691
     24 H           2.2712   -0.0694    2.1634 H       1  UNL1        0.0626
     25 H           2.2756   -0.1093   -2.1566 H       1  UNL1        0.0626
     26 H           4.6870   -0.5434    2.1687 H       1  UNL1        0.0654
     27 H           4.7050   -0.5848   -2.1355 H       1  UNL1        0.0654
     28 H           1.9371    2.3782   -0.0257 H       1  UNL1        0.2924
     29 H          -3.5280    2.4959    0.0026 H       1  UNL1        0.2922
     30 H          -5.2938   -2.7733   -0.0015 H       1  UNL1        0.2921
     31 H           6.5087   -0.9345    0.8773 H       1  UNL1        0.2921
@<TRIPOS>BOND
     1     1     8   ar
     2     1     9   ar
     3     2    11    1
     4     2    28    1
     5     3    13    1
     6     3    29    1
     7     4    10    2
     8     5    15    1
     9     5    30    1
    10     6    21    1
    11     6    31    1
    12     7     8   ar
    13     7    10   ar
    14     7    13   ar
    15     8    14   ar
    16     9    11   ar
    17     9    12    1
    18    10    11   ar
    19    12    17   ar
    20    12    18   ar
    21    13    16   ar
    22    14    15   ar
    23    14    22    1
    24    15    16   ar
    25    16    23    1
    26    17    19   ar
    27    17    24    1
    28    18    20   ar
    29    18    25    1
    30    19    21   ar
    31    19    26    1
    32    20    21   ar
    33    20    27    1
