@<TRIPOS>MOLECULE
5460291
 20 19 0 0 0
SMALL
GASTEIGER

@<TRIPOS>ATOM
      1 O           0.2716   -1.6062    0.2176 O.3     1  UNL1       -0.3862
      2 O          -1.5782    1.4757   -0.6283 O.3     1  UNL1       -0.3869
      3 O           1.3081    0.8279    1.2908 O.3     1  UNL1       -0.3819
      4 O          -3.6878   -0.1611    0.2792 O.3     1  UNL1       -0.3924
      5 O           3.5482   -0.0945    0.0352 O.2     1  UNL1       -0.2982
      6 C           0.0494   -0.3434   -0.4178 C.3     1  UNL1        0.1155
      7 C          -1.2984    0.2420    0.0560 C.3     1  UNL1        0.1068
      8 C           1.2310    0.5965   -0.1206 C.3     1  UNL1        0.1381
      9 C          -2.4613   -0.7297   -0.1847 C.3     1  UNL1        0.0727
     10 C           2.5312   -0.0047   -0.6420 C.2     1  UNL1        0.1512
     11 H           0.0073   -0.5249   -1.4984 H       1  UNL1        0.0650
     12 H          -1.2634    0.4690    1.1269 H       1  UNL1        0.0643
     13 H           1.0895    1.5656   -0.6216 H       1  UNL1        0.0697
     14 H          -2.3129   -1.6806    0.3333 H       1  UNL1        0.0584
     15 H          -2.5881   -0.9275   -1.2563 H       1  UNL1        0.0584
     16 H           0.4982   -1.4102    1.1491 H       1  UNL1        0.2100
     17 H           2.5212   -0.2907   -1.7047 H       1  UNL1        0.1055
     18 H          -1.7302    1.2825   -1.5665 H       1  UNL1        0.2100
     19 H           2.1403    1.3194    1.4372 H       1  UNL1        0.2105
     20 H          -3.6720    0.7814    0.0286 H       1  UNL1        0.2095
@<TRIPOS>BOND
     1     1     6    1
     2     1    16    1
     3     2     7    1
     4     2    18    1
     5     3     8    1
     6     3    19    1
     7     4     9    1
     8     4    20    1
     9     5    10    2
    10     6     7    1
    11     6     8    1
    12     6    11    1
    13     7     9    1
    14     7    12    1
    15     8    10    1
    16     8    13    1
    17     9    14    1
    18     9    15    1
    19    10    17    1
