@<TRIPOS>MOLECULE
10248
 31 31 0 0 0
SMALL
GASTEIGER

@<TRIPOS>ATOM
      1 O           2.6259    0.6110   -0.4044 O.3     1  UNL1       -0.4885
      2 O           0.7942    2.5299   -0.3493 O.3     1  UNL1       -0.4913
      3 O           1.9012   -2.0907    0.2253 O.3     1  UNL1       -0.4913
      4 C          -1.3154   -0.3959    0.5878 C.ar    1  UNL1       -0.0365
      5 C          -2.7488   -0.7388    0.9146 C.3     1  UNL1       -0.0095
      6 C          -0.3321   -1.3918    0.5621 C.ar    1  UNL1       -0.0126
      7 C          -0.9581    0.9259    0.2689 C.ar    1  UNL1       -0.0126
      8 C           0.3643    1.2616   -0.0481 C.ar    1  UNL1        0.1654
      9 C           0.9840   -1.0720    0.2250 C.ar    1  UNL1        0.1654
     10 C           1.3457    0.2544   -0.0526 C.ar    1  UNL1        0.2035
     11 C          -3.5616   -1.0137   -0.3188 C.2     1  UNL1       -0.0868
     12 C           3.5843    0.2756    0.5965 C.3     1  UNL1        0.0791
     13 C          -0.1640    3.5771   -0.2896 C.3     1  UNL1        0.0790
     14 C           2.0368   -2.6286   -1.0903 C.3     1  UNL1        0.0790
     15 C          -4.6155   -0.2853   -0.7100 C.2     1  UNL1       -0.1023
     16 H          -2.7790   -1.6227    1.5644 H       1  UNL1        0.0355
     17 H          -3.1881    0.0761    1.5047 H       1  UNL1        0.0355
     18 H          -0.5857   -2.4227    0.7952 H       1  UNL1        0.0658
     19 H          -1.7411    1.6785    0.2748 H       1  UNL1        0.0658
     20 H          -3.2638   -1.8715   -0.9187 H       1  UNL1        0.0570
     21 H           4.0351   -0.6959    0.3741 H       1  UNL1        0.0660
     22 H           3.1652    0.2828    1.6094 H       1  UNL1        0.0660
     23 H           4.3807    1.0252    0.5591 H       1  UNL1        0.0660
     24 H          -0.5814    3.6752    0.7181 H       1  UNL1        0.0660
     25 H          -0.9540    3.4322   -1.0337 H       1  UNL1        0.0660
     26 H           0.3479    4.5148   -0.5277 H       1  UNL1        0.0660
     27 H           2.3582   -1.8673   -1.8090 H       1  UNL1        0.0660
     28 H           1.1021   -3.0960   -1.4195 H       1  UNL1        0.0660
     29 H           2.8072   -3.4053   -1.0536 H       1  UNL1        0.0660
     30 H          -5.1614   -0.5417   -1.6130 H       1  UNL1        0.0532
     31 H          -4.9546    0.5793   -0.1482 H       1  UNL1        0.0532
@<TRIPOS>BOND
     1     1    10    1
     2     1    12    1
     3     2     8    1
     4     2    13    1
     5     3     9    1
     6     3    14    1
     7     4     5    1
     8     4     6   ar
     9     4     7   ar
    10     5    11    1
    11     5    16    1
    12     5    17    1
    13     6     9   ar
    14     6    18    1
    15     7     8   ar
    16     7    19    1
    17     8    10   ar
    18     9    10   ar
    19    11    15    2
    20    11    20    1
    21    12    21    1
    22    12    22    1
    23    12    23    1
    24    13    24    1
    25    13    25    1
    26    13    26    1
    27    14    27    1
    28    14    28    1
    29    14    29    1
    30    15    30    1
    31    15    31    1
