@<TRIPOS>MOLECULE
5281553
 26 25 0 0 0
SMALL
GASTEIGER

@<TRIPOS>ATOM
      1 C          -0.5747   -0.8238   -1.0942 C.3     1  UNL1       -0.0158
      2 C          -2.5584    0.1460    0.1938 C.2     1  UNL1       -0.0793
      3 C          -1.8175   -0.8906   -0.2453 C.2     1  UNL1       -0.0815
      4 C           0.6696   -0.9278   -0.2551 C.2     1  UNL1       -0.0774
      5 C           1.7215   -0.0817   -0.1928 C.2     1  UNL1       -0.0546
      6 C          -3.8019   -0.0683    1.0164 C.3     1  UNL1       -0.0440
      7 C          -2.2249    1.5906   -0.0588 C.3     1  UNL1       -0.0440
      8 C           1.8399    1.1896   -0.9951 C.3     1  UNL1       -0.0400
      9 C           2.8241   -0.4138    0.7076 C.2     1  UNL1       -0.0662
     10 C           3.9476    0.2930    0.8961 C.2     1  UNL1       -0.0985
     11 H          -0.5912    0.0614   -1.7326 H       1  UNL1        0.0350
     12 H          -0.5916   -1.6730   -1.7887 H       1  UNL1        0.0350
     13 H          -2.1349   -1.9026    0.0076 H       1  UNL1        0.0575
     14 H           0.6904   -1.8253    0.3632 H       1  UNL1        0.0578
     15 H          -4.6664    0.3849    0.5203 H       1  UNL1        0.0274
     16 H          -3.6871    0.3944    2.0021 H       1  UNL1        0.0274
     17 H          -4.0241   -1.1291    1.1704 H       1  UNL1        0.0274
     18 H          -2.9582    2.0301   -0.7420 H       1  UNL1        0.0274
     19 H          -1.2326    1.7333   -0.4897 H       1  UNL1        0.0274
     20 H          -2.2439    2.1514    0.8813 H       1  UNL1        0.0274
     21 H           0.9955    1.3680   -1.6634 H       1  UNL1        0.0277
     22 H           2.7355    1.1633   -1.6264 H       1  UNL1        0.0277
     23 H           1.9058    2.0580   -0.3299 H       1  UNL1        0.0277
     24 H           2.7174   -1.3326    1.2863 H       1  UNL1        0.0614
     25 H           4.6988   -0.0541    1.5976 H       1  UNL1        0.0535
     26 H           4.1570    1.2207    0.3757 H       1  UNL1        0.0535
@<TRIPOS>BOND
     1     1     3    1
     2     1     4    1
     3     1    11    1
     4     1    12    1
     5     2     3    2
     6     2     6    1
     7     2     7    1
     8     3    13    1
     9     4     5    2
    10     4    14    1
    11     5     8    1
    12     5     9    1
    13     6    15    1
    14     6    16    1
    15     6    17    1
    16     7    18    1
    17     7    19    1
    18     7    20    1
    19     8    21    1
    20     8    22    1
    21     8    23    1
    22     9    10    2
    23     9    24    1
    24    10    25    1
    25    10    26    1
