@<TRIPOS>MOLECULE
10856614
 39 40 0 0 0
SMALL
GASTEIGER

@<TRIPOS>ATOM
      1 C           0.9869   -1.0372    0.0244 C.3     1  UNL1       -0.0253
      2 C           0.6863    0.4311   -0.4213 C.3     1  UNL1       -0.0142
      3 C          -0.0906   -1.9706   -0.5800 C.3     1  UNL1       -0.0465
      4 C          -0.7144    0.8632    0.0490 C.3     1  UNL1       -0.0395
      5 C          -1.8004   -0.0878   -0.4916 C.3     1  UNL1       -0.0198
      6 C           2.3723   -1.4254   -0.5379 C.3     1  UNL1       -0.0436
      7 C          -1.5123   -1.5663   -0.1900 C.3     1  UNL1       -0.0460
      8 C           1.8185    1.3895   -0.0697 C.2     1  UNL1       -0.0729
      9 C           0.9978   -1.2111    1.5671 C.3     1  UNL1       -0.0590
     10 C           3.4884   -0.4998   -0.0447 C.3     1  UNL1       -0.0340
     11 C           3.0783    0.9396    0.0859 C.2     1  UNL1       -0.0847
     12 C          -3.1853    0.3206   -0.0145 C.2     1  UNL1       -0.0766
     13 C           1.5133    2.8585    0.0290 C.3     1  UNL1       -0.0435
     14 C          -3.4704    0.2713    1.4641 C.3     1  UNL1       -0.0438
     15 C          -4.1235    0.7157   -0.8913 C.2     1  UNL1       -0.0994
     16 H           0.6481    0.4437   -1.5228 H       1  UNL1        0.0351
     17 H           0.0845   -3.0074   -0.2673 H       1  UNL1        0.0271
     18 H          -0.0150   -1.9615   -1.6752 H       1  UNL1        0.0271
     19 H          -0.7384    0.9210    1.1425 H       1  UNL1        0.0277
     20 H          -0.9397    1.8740   -0.3146 H       1  UNL1        0.0277
     21 H          -1.7720    0.0100   -1.5884 H       1  UNL1        0.0346
     22 H           2.3420   -1.3815   -1.6362 H       1  UNL1        0.0274
     23 H           2.6194   -2.4633   -0.2827 H       1  UNL1        0.0274
     24 H          -2.2246   -2.1979   -0.7364 H       1  UNL1        0.0271
     25 H          -1.6683   -1.7897    0.8704 H       1  UNL1        0.0271
     26 H           1.2581   -2.2416    1.8343 H       1  UNL1        0.0235
     27 H           1.7209   -0.5544    2.0595 H       1  UNL1        0.0235
     28 H           0.0278   -0.9978    2.0249 H       1  UNL1        0.0235
     29 H           4.3399   -0.5722   -0.7314 H       1  UNL1        0.0308
     30 H           3.8455   -0.8449    0.9330 H       1  UNL1        0.0308
     31 H           3.8796    1.6378    0.3237 H       1  UNL1        0.0572
     32 H           0.8484    3.0592    0.8742 H       1  UNL1        0.0274
     33 H           1.0355    3.2112   -0.8921 H       1  UNL1        0.0274
     34 H           2.4181    3.4589    0.1755 H       1  UNL1        0.0274
     35 H          -3.3628   -0.7470    1.8490 H       1  UNL1        0.0274
     36 H          -2.7875    0.9235    2.0163 H       1  UNL1        0.0274
     37 H          -4.4884    0.5988    1.6961 H       1  UNL1        0.0274
     38 H          -5.1177    1.0119   -0.5677 H       1  UNL1        0.0534
     39 H          -3.9269    0.7555   -1.9583 H       1  UNL1        0.0534
@<TRIPOS>BOND
     1     1     2    1
     2     1     3    1
     3     1     6    1
     4     1     9    1
     5     2     4    1
     6     2     8    1
     7     2    16    1
     8     3     7    1
     9     3    17    1
    10     3    18    1
    11     4     5    1
    12     4    19    1
    13     4    20    1
    14     5     7    1
    15     5    12    1
    16     5    21    1
    17     6    10    1
    18     6    22    1
    19     6    23    1
    20     7    24    1
    21     7    25    1
    22     8    11    2
    23     8    13    1
    24     9    26    1
    25     9    27    1
    26     9    28    1
    27    10    11    1
    28    10    29    1
    29    10    30    1
    30    11    31    1
    31    12    14    1
    32    12    15    2
    33    13    32    1
    34    13    33    1
    35    13    34    1
    36    14    35    1
    37    14    36    1
    38    14    37    1
    39    15    38    1
    40    15    39    1
