@<TRIPOS>MOLECULE
66948
 11 11 0 0 0
SMALL
GASTEIGER

@<TRIPOS>ATOM
      1 O           0.0071    1.0006    0.0000 O.3     1  UNL1       -0.4233
      2 O          -2.2567    0.5672   -0.0000 O.2     1  UNL1       -0.2452
      3 C           1.0809    0.1237    0.0000 C.2     1  UNL1        0.1251
      4 C           0.6254   -1.2204    0.0000 C.2     1  UNL1       -0.0130
      5 C          -0.7006   -1.2209    0.0000 C.2     1  UNL1        0.0264
      6 C          -1.0970    0.1883    0.0000 C.2     1  UNL1        0.3373
      7 C           2.3495    0.5362   -0.0000 C.2     1  UNL1       -0.0560
      8 H           1.2595   -2.0931    0.0001 H       1  UNL1        0.0656
      9 H          -1.3891   -2.0449    0.0001 H       1  UNL1        0.0690
     10 H           2.5844    1.5959   -0.0000 H       1  UNL1        0.0571
     11 H           3.1788   -0.1626   -0.0001 H       1  UNL1        0.0571
@<TRIPOS>BOND
     1     1     3    1
     2     1     6    1
     3     2     6    2
     4     3     4    1
     5     3     7    2
     6     4     5    2
     7     4     8    1
     8     5     6    1
     9     5     9    1
    10     7    10    1
    11     7    11    1
