@<TRIPOS>MOLECULE
971
 8 7 0 0 0
SMALL
GASTEIGER

@<TRIPOS>ATOM
      1 O           1.3087   -1.2238    0.0000 O.3     1  UNL1       -0.4726
      2 O          -1.3068    1.2234    0.0000 O.3     1  UNL1       -0.4726
      3 O           1.4732    1.0063   -0.0001 O.2     1  UNL1       -0.2378
      4 O          -1.4719   -1.0067   -0.0001 O.2     1  UNL1       -0.2378
      5 C           0.7802    0.0081   -0.0000 C.2     1  UNL1        0.4148
      6 C          -0.7790   -0.0091   -0.0000 C.2     1  UNL1        0.4148
      7 H           2.2768   -1.0795    0.0000 H       1  UNL1        0.2956
      8 H          -2.2748    1.0805   -0.0000 H       1  UNL1        0.2956
@<TRIPOS>BOND
     1     1     5    1
     2     1     7    1
     3     2     6    1
     4     2     8    1
     5     3     5    2
     6     4     6    2
     7     5     6    1
