@<TRIPOS>MOLECULE
7519
 16 16 0 0 0
SMALL
GASTEIGER

@<TRIPOS>ATOM
      1 O           1.8805   -0.6288   -0.0003 O.3     1  UNL1       -0.4951
      2 C           0.5735   -0.2243   -0.0002 C.ar    1  UNL1        0.1201
      3 C           0.1246    1.0974   -0.0002 C.ar    1  UNL1       -0.0200
      4 C          -0.3623   -1.2628    0.0005 C.ar    1  UNL1       -0.0200
      5 C          -1.2462    1.3741    0.0001 C.ar    1  UNL1       -0.0583
      6 C          -1.7307   -0.9873    0.0010 C.ar    1  UNL1       -0.0583
      7 C          -2.1727    0.3332    0.0007 C.ar    1  UNL1       -0.0615
      8 C           2.8661    0.3959   -0.0001 C.3     1  UNL1        0.0788
      9 H           0.8128    1.9356   -0.0009 H       1  UNL1        0.0654
     10 H          -0.0200   -2.2948    0.0009 H       1  UNL1        0.0654
     11 H          -1.5894    2.4056    0.0000 H       1  UNL1        0.0619
     12 H          -2.4482   -1.8036    0.0014 H       1  UNL1        0.0619
     13 H          -3.2374    0.5516    0.0010 H       1  UNL1        0.0618
     14 H           2.7958    1.0106    0.9035 H       1  UNL1        0.0660
     15 H           2.7963    1.0106   -0.9036 H       1  UNL1        0.0660
     16 H           3.8494   -0.0843    0.0002 H       1  UNL1        0.0660
@<TRIPOS>BOND
     1     1     2    1
     2     1     8    1
     3     2     3   ar
     4     2     4   ar
     5     3     5   ar
     6     3     9    1
     7     4     6   ar
     8     4    10    1
     9     5     7   ar
    10     5    11    1
    11     6     7   ar
    12     6    12    1
    13     7    13    1
    14     8    14    1
    15     8    15    1
    16     8    16    1
