@<TRIPOS>MOLECULE
12306047
 39 40 0 0 0
SMALL
GASTEIGER

@<TRIPOS>ATOM
      1 C           0.0681   -0.7661    0.4683 C.3     1  UNL1       -0.0128
      2 C           1.3366   -0.7721   -0.4250 C.3     1  UNL1       -0.0285
      3 C          -0.3005    0.6805    0.9220 C.3     1  UNL1       -0.0133
      4 C          -1.7211    0.6624    1.5129 C.3     1  UNL1       -0.0423
      5 C           1.1376    0.1322   -1.6561 C.3     1  UNL1       -0.0309
      6 C           2.6030   -0.3722    0.3727 C.3     1  UNL1       -0.0431
      7 C          -0.0986    1.7342   -0.1664 C.2     1  UNL1       -0.0729
      8 C          -1.0678   -1.4897   -0.2224 C.2     1  UNL1       -0.0811
      9 C          -2.7665    0.1812    0.5055 C.3     1  UNL1       -0.0314
     10 C           0.5360    1.4608   -1.3205 C.2     1  UNL1       -0.0845
     11 C          -2.3399   -1.0604   -0.2305 C.2     1  UNL1       -0.0762
     12 C           2.7612   -1.2606    1.6070 C.3     1  UNL1       -0.0624
     13 C           3.8445   -0.4585   -0.5146 C.3     1  UNL1       -0.0624
     14 C          -0.5867    3.1283    0.1140 C.3     1  UNL1       -0.0435
     15 C          -3.4161   -1.7961   -0.9698 C.3     1  UNL1       -0.0438
     16 H           0.2466   -1.3666    1.3686 H       1  UNL1        0.0352
     17 H           1.5019   -1.7965   -0.7941 H       1  UNL1        0.0312
     18 H           0.3808    0.9610    1.7399 H       1  UNL1        0.0351
     19 H          -2.0063    1.6465    1.9001 H       1  UNL1        0.0274
     20 H          -1.7294   -0.0109    2.3815 H       1  UNL1        0.0274
     21 H           0.4699   -0.3711   -2.3649 H       1  UNL1        0.0310
     22 H           2.0675    0.2866   -2.2085 H       1  UNL1        0.0310
     23 H           2.5239    0.6658    0.7203 H       1  UNL1        0.0298
     24 H          -0.8131   -2.4158   -0.7307 H       1  UNL1        0.0575
     25 H          -2.9809    0.9703   -0.2247 H       1  UNL1        0.0310
     26 H          -3.6991   -0.0146    1.0482 H       1  UNL1        0.0310
     27 H           0.6476    2.2348   -2.0748 H       1  UNL1        0.0572
     28 H           2.6471   -2.3200    1.3547 H       1  UNL1        0.0232
     29 H           3.7494   -1.1226    2.0554 H       1  UNL1        0.0232
     30 H           2.0347   -1.0055    2.3835 H       1  UNL1        0.0232
     31 H           3.8808   -1.4062   -1.0617 H       1  UNL1        0.0232
     32 H           4.7531   -0.3797    0.0894 H       1  UNL1        0.0232
     33 H           3.8849    0.3621   -1.2355 H       1  UNL1        0.0232
     34 H          -0.2167    3.4695    1.0858 H       1  UNL1        0.0274
     35 H          -1.6800    3.1653    0.1186 H       1  UNL1        0.0274
     36 H          -0.2376    3.8444   -0.6374 H       1  UNL1        0.0274
     37 H          -4.1913   -2.1330   -0.2746 H       1  UNL1        0.0274
     38 H          -3.0299   -2.6776   -1.4923 H       1  UNL1        0.0274
     39 H          -3.8766   -1.1414   -1.7165 H       1  UNL1        0.0274
@<TRIPOS>BOND
     1     1     2    1
     2     1     3    1
     3     1     8    1
     4     1    16    1
     5     2     5    1
     6     2     6    1
     7     2    17    1
     8     3     4    1
     9     3     7    1
    10     3    18    1
    11     4     9    1
    12     4    19    1
    13     4    20    1
    14     5    10    1
    15     5    21    1
    16     5    22    1
    17     6    12    1
    18     6    13    1
    19     6    23    1
    20     7    10    2
    21     7    14    1
    22     8    11    2
    23     8    24    1
    24     9    11    1
    25     9    25    1
    26     9    26    1
    27    10    27    1
    28    11    15    1
    29    12    28    1
    30    12    29    1
    31    12    30    1
    32    13    31    1
    33    13    32    1
    34    13    33    1
    35    14    34    1
    36    14    35    1
    37    14    36    1
    38    15    37    1
    39    15    38    1
    40    15    39    1
