@<TRIPOS>MOLECULE
6654
 26 27 0 0 0
SMALL
GASTEIGER

@<TRIPOS>ATOM
      1 C          -1.1387   -0.3647    0.2507 C.3     1  UNL1       -0.0253
      2 C          -0.8684    1.1299   -0.2225 C.3     1  UNL1       -0.0314
      3 C           0.1033   -0.6825   -0.7000 C.3     1  UNL1       -0.0145
      4 C          -0.4144    0.5067   -1.5855 C.3     1  UNL1       -0.0424
      5 C           0.3199    1.8267    0.4735 C.3     1  UNL1       -0.0311
      6 C           1.4360   -0.3302   -0.0875 C.2     1  UNL1       -0.0729
      7 C          -2.4806   -0.9640   -0.2123 C.3     1  UNL1       -0.0590
      8 C          -0.9953   -0.6632    1.7496 C.3     1  UNL1       -0.0590
      9 C           1.5183    0.8976    0.4645 C.2     1  UNL1       -0.0845
     10 C           2.5346   -1.3370   -0.1243 C.3     1  UNL1       -0.0435
     11 H          -1.7525    1.7730   -0.2804 H       1  UNL1        0.0309
     12 H           0.0928   -1.6647   -1.1827 H       1  UNL1        0.0351
     13 H           0.3363    1.0645   -2.1564 H       1  UNL1        0.0274
     14 H          -1.2173    0.2576   -2.2869 H       1  UNL1        0.0274
     15 H           0.0547    2.0819    1.5051 H       1  UNL1        0.0310
     16 H           0.5732    2.7554   -0.0483 H       1  UNL1        0.0310
     17 H          -3.3112   -0.5186    0.3468 H       1  UNL1        0.0235
     18 H          -2.4958   -2.0454   -0.0371 H       1  UNL1        0.0235
     19 H          -2.6884   -0.8082   -1.2735 H       1  UNL1        0.0235
     20 H          -1.0073   -1.7440    1.9285 H       1  UNL1        0.0235
     21 H          -1.8242   -0.2169    2.3104 H       1  UNL1        0.0235
     22 H          -0.0742   -0.2804    2.1935 H       1  UNL1        0.0235
     23 H           2.4303    1.2398    0.9440 H       1  UNL1        0.0572
     24 H           2.7959   -1.5798   -1.1583 H       1  UNL1        0.0274
     25 H           2.2239   -2.2572    0.3829 H       1  UNL1        0.0274
     26 H           3.4403   -0.9682    0.3730 H       1  UNL1        0.0274
@<TRIPOS>BOND
     1     1     2    1
     2     1     3    1
     3     1     7    1
     4     1     8    1
     5     2     4    1
     6     2     5    1
     7     2    11    1
     8     3     4    1
     9     3     6    1
    10     3    12    1
    11     4    13    1
    12     4    14    1
    13     5     9    1
    14     5    15    1
    15     5    16    1
    16     6     9    2
    17     6    10    1
    18     7    17    1
    19     7    18    1
    20     7    19    1
    21     8    20    1
    22     8    21    1
    23     8    22    1
    24     9    23    1
    25    10    24    1
    26    10    25    1
    27    10    26    1
