@<TRIPOS>MOLECULE
5281643
 53 56 0 0 0
SMALL
GASTEIGER

@<TRIPOS>ATOM
      1 O          -1.0508    2.4678    0.1376 O.3     1  UNL1       -0.3313
      2 O          -0.6463    0.4379    1.2597 O.3     1  UNL1       -0.4532
      3 O          -5.1316    1.6218    0.0273 O.3     1  UNL1       -0.3864
      4 O          -3.5630    3.8159    0.6918 O.3     1  UNL1       -0.3865
      5 O          -3.2746   -0.4788    0.5534 O.3     1  UNL1       -0.3829
      6 O           0.1193    4.5490   -1.2447 O.3     1  UNL1       -0.3924
      7 O           1.9504   -1.7538   -0.1729 O.2     1  UNL1       -0.4507
      8 O           1.6921    2.0574    1.2499 O.2     1  UNL1       -0.2830
      9 O           4.2264    2.4358    0.7643 O.3     1  UNL1       -0.5058
     10 O           6.5762   -1.2135   -1.0885 O.3     1  UNL1       -0.5065
     11 O          -2.9674   -3.2526   -2.1094 O.3     1  UNL1       -0.5033
     12 O          -3.4767   -4.9479   -0.0097 O.3     1  UNL1       -0.5033
     13 C          -3.7623    1.6666   -0.4043 C.3     1  UNL1        0.1152
     14 C          -3.3109    3.1226   -0.5371 C.3     1  UNL1        0.1120
     15 C          -2.8843    0.9045    0.5882 C.3     1  UNL1        0.1454
     16 C          -1.8130    3.1626   -0.8680 C.3     1  UNL1        0.1140
     17 C          -1.3993    1.0918    0.2263 C.3     1  UNL1        0.2311
     18 C          -1.2751    4.5917   -0.9297 C.3     1  UNL1        0.0731
     19 C           0.5678   -0.0044    0.7670 C.ar    1  UNL1        0.2138
     20 C           0.7544   -1.2494    0.2941 C.ar    1  UNL1        0.1810
     21 C           1.7458    0.9074    0.8232 C.ar    1  UNL1        0.2382
     22 C           3.0210    0.3696    0.3260 C.ar    1  UNL1        0.1092
     23 C           3.0531   -0.9408   -0.1454 C.ar    1  UNL1        0.1465
     24 C          -0.3436   -2.2229    0.2135 C.ar    1  UNL1        0.0247
     25 C           4.1856    1.1390    0.3193 C.ar    1  UNL1        0.1348
     26 C           4.2415   -1.4898   -0.6255 C.ar    1  UNL1        0.0231
     27 C          -1.1423   -2.2984   -0.9364 C.ar    1  UNL1       -0.0057
     28 C          -0.6032   -3.0772    1.2933 C.ar    1  UNL1       -0.0473
     29 C           5.3767    0.5992   -0.1605 C.ar    1  UNL1        0.0223
     30 C           5.3957   -0.7128   -0.6266 C.ar    1  UNL1        0.1239
     31 C          -2.1906   -3.2124   -0.9882 C.ar    1  UNL1        0.1589
     32 C          -1.6509   -3.9991    1.2228 C.ar    1  UNL1       -0.0159
     33 C          -2.4421   -4.0693    0.0819 C.ar    1  UNL1        0.1583
     34 H          -3.7299    1.1749   -1.3853 H       1  UNL1        0.0648
     35 H          -3.8974    3.6311   -1.3103 H       1  UNL1        0.0647
     36 H          -3.0802    1.2412    1.6116 H       1  UNL1        0.0683
     37 H          -1.6173    2.6703   -1.8302 H       1  UNL1        0.0647
     38 H          -1.1995    0.6150   -0.7434 H       1  UNL1        0.1084
     39 H          -1.3783    5.1110    0.0278 H       1  UNL1        0.0584
     40 H          -1.7841    5.1697   -1.7067 H       1  UNL1        0.0584
     41 H          -5.3282    0.6696    0.1453 H       1  UNL1        0.2100
     42 H          -4.5058    3.6600    0.8974 H       1  UNL1        0.2100
     43 H          -2.7069   -0.9380    1.2027 H       1  UNL1        0.2102
     44 H           0.5204    4.0103   -0.5314 H       1  UNL1        0.2095
     45 H           4.2507   -2.5120   -0.9918 H       1  UNL1        0.0691
     46 H          -0.9735   -1.6413   -1.7843 H       1  UNL1        0.0662
     47 H           0.0143   -3.0321    2.1893 H       1  UNL1        0.0626
     48 H           6.2840    1.1969   -0.1688 H       1  UNL1        0.0691
     49 H          -1.8289   -4.6575    2.0757 H       1  UNL1        0.0655
     50 H           3.3276    2.6879    1.0690 H       1  UNL1        0.2922
     51 H           6.4423   -2.1285   -1.3847 H       1  UNL1        0.2921
     52 H          -3.6346   -3.9466   -1.9356 H       1  UNL1        0.2923
     53 H          -3.5065   -5.4643    0.8177 H       1  UNL1        0.2923
@<TRIPOS>BOND
     1     1    16    1
     2     1    17    1
     3     2    17    1
     4     2    19    1
     5     3    13    1
     6     3    41    1
     7     4    14    1
     8     4    42    1
     9     5    15    1
    10     5    43    1
    11     6    18    1
    12     6    44    1
    13     7    20   ar
    14     7    23   ar
    15     8    21    2
    16     9    25    1
    17     9    50    1
    18    10    30    1
    19    10    51    1
    20    11    31    1
    21    11    52    1
    22    12    33    1
    23    12    53    1
    24    13    14    1
    25    13    15    1
    26    13    34    1
    27    14    16    1
    28    14    35    1
    29    15    17    1
    30    15    36    1
    31    16    18    1
    32    16    37    1
    33    17    38    1
    34    18    39    1
    35    18    40    1
    36    19    20   ar
    37    19    21   ar
    38    20    24    1
    39    21    22   ar
    40    22    23   ar
    41    22    25   ar
    42    23    26   ar
    43    24    27   ar
    44    24    28   ar
    45    25    29   ar
    46    26    30   ar
    47    26    45    1
    48    27    31   ar
    49    27    46    1
    50    28    32   ar
    51    28    47    1
    52    29    30   ar
    53    29    48    1
    54    31    33   ar
    55    32    33   ar
    56    32    49    1
