@<TRIPOS>MOLECULE
68316
 25 25 0 0 0
SMALL
GASTEIGER

@<TRIPOS>ATOM
      1 O          -2.6655    1.0994   -0.6575 O.2     1  UNL1       -0.4708
      2 C          -0.5086   -1.8644   -0.1408 C.3     1  UNL1       -0.0213
      3 C           0.9286   -1.6937    0.3696 C.3     1  UNL1       -0.0304
      4 C          -1.3414   -0.6258   -0.0585 C.ar    1  UNL1       -0.0094
      5 C           1.7493   -0.7432   -0.4647 C.2     1  UNL1       -0.0850
      6 C           2.3861    0.3685   -0.0459 C.2     1  UNL1       -0.0796
      7 C          -1.6379    0.1534    1.0973 C.ar    1  UNL1       -0.0207
      8 C          -2.0017    0.0007   -1.0967 C.ar    1  UNL1        0.0948
      9 C           3.1375    1.2420   -1.0159 C.3     1  UNL1       -0.0440
     10 C           2.4129    0.8500    1.3782 C.3     1  UNL1       -0.0440
     11 C          -2.4356    1.1898    0.6761 C.ar    1  UNL1        0.0919
     12 H          -0.4898   -2.2303   -1.1760 H       1  UNL1        0.0317
     13 H          -0.9995   -2.6463    0.4523 H       1  UNL1        0.0317
     14 H           0.9014   -1.3948    1.4214 H       1  UNL1        0.0311
     15 H           1.4243   -2.6717    0.3408 H       1  UNL1        0.0311
     16 H           1.8043   -1.0028   -1.5225 H       1  UNL1        0.0572
     17 H          -1.3010   -0.0161    2.1095 H       1  UNL1        0.0652
     18 H          -2.0926   -0.2036   -2.1546 H       1  UNL1        0.1032
     19 H           4.1995    1.2751   -0.7517 H       1  UNL1        0.0274
     20 H           3.0630    0.8800   -2.0470 H       1  UNL1        0.0274
     21 H           2.7411    2.2625   -0.9921 H       1  UNL1        0.0274
     22 H           1.6077    1.5726    1.5466 H       1  UNL1        0.0274
     23 H           3.3654    1.3429    1.6016 H       1  UNL1        0.0274
     24 H           2.3136    0.0362    2.1008 H       1  UNL1        0.0274
     25 H          -2.9011    2.0285    1.1747 H       1  UNL1        0.1029
@<TRIPOS>BOND
     1     1     8   ar
     2     1    11   ar
     3     2     3    1
     4     2     4    1
     5     2    12    1
     6     2    13    1
     7     3     5    1
     8     3    14    1
     9     3    15    1
    10     4     7   ar
    11     4     8   ar
    12     5     6    2
    13     5    16    1
    14     6     9    1
    15     6    10    1
    16     7    11   ar
    17     7    17    1
    18     8    18    1
    19     9    19    1
    20     9    20    1
    21     9    21    1
    22    10    22    1
    23    10    23    1
    24    10    24    1
    25    11    25    1
