@<TRIPOS>MOLECULE
5144
 22 23 0 0 0
SMALL
GASTEIGER

@<TRIPOS>ATOM
      1 O           2.0132   -1.6338   -0.1660 O.3     1  UNL1       -0.4526
      2 O           2.9701    0.5060    0.4080 O.3     1  UNL1       -0.4526
      3 C          -1.0579    0.3725   -0.4402 C.ar    1  UNL1       -0.0400
      4 C           1.0913   -0.6335   -0.1740 C.ar    1  UNL1        0.1665
      5 C           1.6365    0.5850    0.1533 C.ar    1  UNL1        0.1662
      6 C          -0.2481   -0.7754   -0.4701 C.ar    1  UNL1       -0.0127
      7 C          -2.5324    0.2696   -0.7517 C.3     1  UNL1       -0.0096
      8 C          -0.4881    1.6193   -0.0917 C.ar    1  UNL1       -0.0546
      9 C           0.8738    1.7306    0.2059 C.ar    1  UNL1       -0.0159
     10 C           3.2011   -0.9031    0.2030 C.3     1  UNL1        0.2332
     11 C          -3.3579   -0.0134    0.4703 C.2     1  UNL1       -0.0868
     12 C          -4.1023   -1.1146    0.6398 C.2     1  UNL1       -0.1023
     13 H          -0.6553   -1.7498   -0.7185 H       1  UNL1        0.0658
     14 H          -2.8765    1.2085   -1.2035 H       1  UNL1        0.0355
     15 H          -2.6858   -0.4998   -1.5196 H       1  UNL1        0.0355
     16 H          -1.1121    2.5102   -0.0531 H       1  UNL1        0.0622
     17 H           1.3158    2.6844    0.4696 H       1  UNL1        0.0655
     18 H           3.9475   -1.0237   -0.5906 H       1  UNL1        0.1166
     19 H           3.6017   -1.3309    1.1294 H       1  UNL1        0.1166
     20 H          -3.3484    0.7407    1.2543 H       1  UNL1        0.0570
     21 H          -4.6829   -1.2580    1.5460 H       1  UNL1        0.0532
     22 H          -4.1452   -1.8961   -0.1125 H       1  UNL1        0.0532
@<TRIPOS>BOND
     1     1     4    1
     2     1    10    1
     3     2     5    1
     4     2    10    1
     5     3     6   ar
     6     3     7    1
     7     3     8   ar
     8     4     5   ar
     9     4     6   ar
    10     5     9   ar
    11     6    13    1
    12     7    11    1
    13     7    14    1
    14     7    15    1
    15     8     9   ar
    16     8    16    1
    17     9    17    1
    18    10    18    1
    19    10    19    1
    20    11    12    2
    21    11    20    1
    22    12    21    1
    23    12    22    1
