@<TRIPOS>MOLECULE
11996452
 42 44 0 0 0
SMALL
GASTEIGER

@<TRIPOS>ATOM
      1 O          -2.1294    1.0609    1.5203 O.3     1  UNL1       -0.3886
      2 C           1.0737    0.0251   -0.4438 C.3     1  UNL1       -0.0289
      3 C           2.1026    1.0618    0.0126 C.3     1  UNL1       -0.0284
      4 C           0.8998    1.4739   -0.8226 C.3     1  UNL1       -0.0319
      5 C           0.2164   -0.7210    0.5584 C.3     1  UNL1       -0.0294
      6 C          -1.2920   -0.7680    0.2352 C.3     1  UNL1       -0.0090
      7 C          -0.2488    2.2731   -0.3258 C.3     1  UNL1       -0.0468
      8 C           0.5285   -2.2414    0.5201 C.3     1  UNL1       -0.0404
      9 C          -2.1003    0.5456    0.1761 C.3     1  UNL1        0.0664
     10 C          -1.3610   -1.7203   -0.9630 C.3     1  UNL1       -0.0471
     11 C          -1.5790    1.6549   -0.7554 C.3     1  UNL1       -0.0237
     12 C           2.2026    1.4588    1.4662 C.3     1  UNL1       -0.0593
     13 C           3.4468    1.0518   -0.6768 C.3     1  UNL1       -0.0593
     14 C          -0.2571   -2.7596   -0.6996 C.3     1  UNL1       -0.0498
     15 C           2.0002   -2.6308    0.5169 C.3     1  UNL1       -0.0621
     16 C          -3.5633    0.2424   -0.1963 C.3     1  UNL1       -0.0358
     17 H           1.3333   -0.6030   -1.2934 H       1  UNL1        0.0312
     18 H           1.0840    1.7129   -1.8689 H       1  UNL1        0.0309
     19 H           0.3636   -0.3547    1.5772 H       1  UNL1        0.0310
     20 H          -1.7442   -1.3213    1.0775 H       1  UNL1        0.0331
     21 H          -0.1707    3.2702   -0.7794 H       1  UNL1        0.0269
     22 H          -0.2252    2.4442    0.7523 H       1  UNL1        0.0269
     23 H           0.0829   -2.6932    1.4187 H       1  UNL1        0.0301
     24 H          -1.1677   -1.1941   -1.9041 H       1  UNL1        0.0269
     25 H          -2.3385   -2.2063   -1.0453 H       1  UNL1        0.0269
     26 H          -2.3101    2.4755   -0.7455 H       1  UNL1        0.0293
     27 H          -1.5282    1.2957   -1.7906 H       1  UNL1        0.0293
     28 H           2.6979    2.4317    1.5585 H       1  UNL1        0.0235
     29 H           2.7982    0.7195    2.0131 H       1  UNL1        0.0235
     30 H           1.2403    1.5409    1.9743 H       1  UNL1        0.0235
     31 H           3.8948    2.0504   -0.6445 H       1  UNL1        0.0235
     32 H           3.3710    0.7533   -1.7275 H       1  UNL1        0.0235
     33 H           4.1257    0.3534   -0.1763 H       1  UNL1        0.0235
     34 H          -0.6883   -3.7438   -0.4838 H       1  UNL1        0.0268
     35 H           0.3758   -2.8678   -1.5873 H       1  UNL1        0.0268
     36 H           2.5112   -2.3313   -0.4030 H       1  UNL1        0.0233
     37 H           2.5223   -2.1718    1.3625 H       1  UNL1        0.0233
     38 H           2.1042   -3.7175    0.6062 H       1  UNL1        0.0233
     39 H          -3.6580   -0.1060   -1.2294 H       1  UNL1        0.0257
     40 H          -3.9874   -0.5164    0.4713 H       1  UNL1        0.0257
     41 H          -4.1907    1.1340   -0.0785 H       1  UNL1        0.0257
     42 H          -2.6647    1.8726    1.5214 H       1  UNL1        0.2102
@<TRIPOS>BOND
     1     1     9    1
     2     1    42    1
     3     2     3    1
     4     2     4    1
     5     2     5    1
     6     2    17    1
     7     3     4    1
     8     3    12    1
     9     3    13    1
    10     4     7    1
    11     4    18    1
    12     5     6    1
    13     5     8    1
    14     5    19    1
    15     6     9    1
    16     6    10    1
    17     6    20    1
    18     7    11    1
    19     7    21    1
    20     7    22    1
    21     8    14    1
    22     8    15    1
    23     8    23    1
    24     9    11    1
    25     9    16    1
    26    10    14    1
    27    10    24    1
    28    10    25    1
    29    11    26    1
    30    11    27    1
    31    12    28    1
    32    12    29    1
    33    12    30    1
    34    13    31    1
    35    13    32    1
    36    13    33    1
    37    14    34    1
    38    14    35    1
    39    15    36    1
    40    15    37    1
    41    15    38    1
    42    16    39    1
    43    16    40    1
    44    16    41    1
