@<TRIPOS>MOLECULE
6549
 29 28 0 0 0
SMALL
GASTEIGER

@<TRIPOS>ATOM
      1 O           2.5082   -0.9706   -1.3967 O.3     1  UNL1       -0.3848
      2 C           1.8782   -0.4162   -0.2332 C.3     1  UNL1        0.0814
      3 C           0.3678   -0.7217   -0.3405 C.3     1  UNL1       -0.0172
      4 C          -0.4885   -0.1980    0.8160 C.3     1  UNL1       -0.0316
      5 C           2.5064   -1.1435    0.9619 C.3     1  UNL1       -0.0324
      6 C           2.1441    1.0753   -0.2807 C.2     1  UNL1       -0.0602
      7 C          -1.9312   -0.5988    0.6413 C.2     1  UNL1       -0.0852
      8 C          -2.8849    0.1125    0.0023 C.2     1  UNL1       -0.0796
      9 C          -4.3091   -0.3751   -0.1070 C.3     1  UNL1       -0.0440
     10 C          -2.6249    1.4297   -0.6743 C.3     1  UNL1       -0.0440
     11 C           2.8367    1.8121    0.6003 C.2     1  UNL1       -0.1000
     12 H          -0.0130   -0.3168   -1.2898 H       1  UNL1        0.0299
     13 H           0.2349   -1.8089   -0.4328 H       1  UNL1        0.0299
     14 H          -0.3972    0.8885    0.9128 H       1  UNL1        0.0308
     15 H          -0.1405   -0.6081    1.7717 H       1  UNL1        0.0308
     16 H           2.2879   -2.2171    0.9166 H       1  UNL1        0.0260
     17 H           3.5994   -1.0592    0.9448 H       1  UNL1        0.0260
     18 H           2.1472   -0.7624    1.9225 H       1  UNL1        0.0260
     19 H           1.7155    1.6010   -1.1328 H       1  UNL1        0.0594
     20 H          -2.1984   -1.5558    1.0900 H       1  UNL1        0.0571
     21 H           2.1070   -0.5594   -2.1795 H       1  UNL1        0.2106
     22 H          -4.5800   -0.5065   -1.1606 H       1  UNL1        0.0274
     23 H          -4.9925    0.3549    0.3348 H       1  UNL1        0.0274
     24 H          -4.4644   -1.3328    0.3989 H       1  UNL1        0.0274
     25 H          -3.1407    2.2316   -0.1376 H       1  UNL1        0.0274
     26 H          -1.5647    1.6856   -0.7237 H       1  UNL1        0.0274
     27 H          -2.9899    1.3999   -1.7047 H       1  UNL1        0.0274
     28 H           2.9572    2.8815    0.4513 H       1  UNL1        0.0533
     29 H           3.3108    1.3837    1.4771 H       1  UNL1        0.0533
@<TRIPOS>BOND
     1     1     2    1
     2     1    21    1
     3     2     3    1
     4     2     5    1
     5     2     6    1
     6     3     4    1
     7     3    12    1
     8     3    13    1
     9     4     7    1
    10     4    14    1
    11     4    15    1
    12     5    16    1
    13     5    17    1
    14     5    18    1
    15     6    11    2
    16     6    19    1
    17     7     8    2
    18     7    20    1
    19     8     9    1
    20     8    10    1
    21     9    22    1
    22     9    23    1
    23     9    24    1
    24    10    25    1
    25    10    26    1
    26    10    27    1
    27    11    28    1
    28    11    29    1
