@<TRIPOS>MOLECULE
5316673
 51 54 0 0 0
SMALL
GASTEIGER

@<TRIPOS>ATOM
      1 O           1.4940    2.0873    1.0082 O.3     1  UNL1       -0.3339
      2 O           0.9661    0.3901   -0.6011 O.3     1  UNL1       -0.4532
      3 O           5.2371    1.0026   -0.4835 O.3     1  UNL1       -0.3864
      4 O           4.1233    3.6397   -1.0873 O.3     1  UNL1       -0.3866
      5 O           3.7947    0.3875    1.7628 O.3     1  UNL1       -0.3829
      6 O          -2.1200   -1.5281    0.0418 O.2     1  UNL1       -0.4507
      7 O          -1.0096    2.3285   -0.6836 O.2     1  UNL1       -0.2830
      8 O          -3.5719    3.0717   -0.3715 O.3     1  UNL1       -0.5058
      9 O          -6.6830   -0.4487    0.4699 O.3     1  UNL1       -0.5065
     10 O           2.7567   -5.5261   -0.0745 O.3     1  UNL1       -0.5068
     11 C           3.8302    1.2903   -0.4798 C.3     1  UNL1        0.1151
     12 C           3.5834    2.7596   -0.0928 C.3     1  UNL1        0.1096
     13 C           3.1237    0.3351    0.4875 C.3     1  UNL1        0.1454
     14 C           2.0763    3.0111    0.0846 C.3     1  UNL1        0.0883
     15 C           1.6377    0.7204    0.6205 C.3     1  UNL1        0.2311
     16 C           1.8101    4.4163    0.6168 C.3     1  UNL1       -0.0360
     17 C          -0.3646    0.0834   -0.3662 C.ar    1  UNL1        0.2138
     18 C          -0.8029   -1.1726   -0.1639 C.ar    1  UNL1        0.1809
     19 C          -1.3646    1.1854   -0.4271 C.ar    1  UNL1        0.2382
     20 C          -2.7759    0.8089   -0.1842 C.ar    1  UNL1        0.1092
     21 C          -3.0714   -0.5391    0.0331 C.ar    1  UNL1        0.1465
     22 C           0.1213   -2.3166   -0.1283 C.ar    1  UNL1        0.0213
     23 C          -3.8200    1.7464   -0.1720 C.ar    1  UNL1        0.1348
     24 C          -4.3881   -0.9516    0.2522 C.ar    1  UNL1        0.0231
     25 C           0.7166   -2.7100    1.0806 C.ar    1  UNL1       -0.0475
     26 C           0.4263   -3.0164   -1.3018 C.ar    1  UNL1       -0.0475
     27 C          -5.1396    1.3377    0.0465 C.ar    1  UNL1        0.0223
     28 C          -5.4099   -0.0096    0.2549 C.ar    1  UNL1        0.1239
     29 C           1.6116   -3.7824    1.1143 C.ar    1  UNL1       -0.0195
     30 C           1.3123   -4.0956   -1.2656 C.ar    1  UNL1       -0.0195
     31 C           1.8984   -4.4681   -0.0612 C.ar    1  UNL1        0.1169
     32 H           3.4797    1.1182   -1.5039 H       1  UNL1        0.0648
     33 H           4.1178    2.9781    0.8398 H       1  UNL1        0.0646
     34 H           3.2280   -0.6918    0.1176 H       1  UNL1        0.0683
     35 H           1.5721    2.9270   -0.8861 H       1  UNL1        0.0621
     36 H           1.2239    0.1411    1.4543 H       1  UNL1        0.1084
     37 H           2.2626    4.5520    1.6054 H       1  UNL1        0.0255
     38 H           2.2011    5.1855   -0.0558 H       1  UNL1        0.0255
     39 H           0.7336    4.5782    0.7400 H       1  UNL1        0.0255
     40 H           5.5208    1.0824    0.4485 H       1  UNL1        0.2100
     41 H           3.7201    3.4093   -1.9423 H       1  UNL1        0.2100
     42 H           3.3222   -0.2164    2.3615 H       1  UNL1        0.2102
     43 H          -4.6166   -2.0016    0.4154 H       1  UNL1        0.0691
     44 H           0.4841   -2.1850    2.0043 H       1  UNL1        0.0626
     45 H          -0.0254   -2.7309   -2.2492 H       1  UNL1        0.0626
     46 H          -5.9441    2.0664    0.0533 H       1  UNL1        0.0691
     47 H           2.0649   -4.0713    2.0574 H       1  UNL1        0.0654
     48 H           1.5428   -4.6442   -2.1747 H       1  UNL1        0.0654
     49 H          -4.3879    3.5921   -0.3379 H       1  UNL1        0.2922
     50 H          -7.2950    0.3038    0.4424 H       1  UNL1        0.2921
     51 H           3.0808   -5.6819    0.8293 H       1  UNL1        0.2921
@<TRIPOS>BOND
     1     1    14    1
     2     1    15    1
     3     2    15    1
     4     2    17    1
     5     3    11    1
     6     3    40    1
     7     4    12    1
     8     4    41    1
     9     5    13    1
    10     5    42    1
    11     6    18   ar
    12     6    21   ar
    13     7    19    2
    14     8    23    1
    15     8    49    1
    16     9    28    1
    17     9    50    1
    18    10    31    1
    19    10    51    1
    20    11    12    1
    21    11    13    1
    22    11    32    1
    23    12    14    1
    24    12    33    1
    25    13    15    1
    26    13    34    1
    27    14    16    1
    28    14    35    1
    29    15    36    1
    30    16    37    1
    31    16    38    1
    32    16    39    1
    33    17    18   ar
    34    17    19   ar
    35    18    22    1
    36    19    20   ar
    37    20    21   ar
    38    20    23   ar
    39    21    24   ar
    40    22    25   ar
    41    22    26   ar
    42    23    27   ar
    43    24    28   ar
    44    24    43    1
    45    25    29   ar
    46    25    44    1
    47    26    30   ar
    48    26    45    1
    49    27    28   ar
    50    27    46    1
    51    29    31   ar
    52    29    47    1
    53    30    31   ar
    54    30    48    1
