@<TRIPOS>MOLECULE
5280441
 51 54 0 0 0
SMALL
GASTEIGER

@<TRIPOS>ATOM
      1 O          -0.5076   -1.9364    0.9426 O.3     1  UNL1       -0.3609
      2 O          -1.1570   -1.8241   -2.7210 O.3     1  UNL1       -0.3862
      3 O           1.5299   -2.8313   -2.5619 O.3     1  UNL1       -0.3865
      4 O           1.9966   -4.4175   -0.1972 O.3     1  UNL1       -0.3865
      5 O          -0.1413    0.7668    0.0460 O.2     1  UNL1       -0.4540
      6 O          -0.0637   -3.1995    3.3806 O.3     1  UNL1       -0.3924
      7 O          -4.1336   -1.8350   -0.2163 O.3     1  UNL1       -0.5062
      8 O          -4.5080    2.8639    0.2225 O.3     1  UNL1       -0.5058
      9 O          -2.2519    4.2048    0.3550 O.2     1  UNL1       -0.2869
     10 O           6.1343    1.5768    0.0243 O.3     1  UNL1       -0.5068
     11 C          -0.3771   -1.7902   -1.5166 C.3     1  UNL1        0.1139
     12 C           0.5607   -2.9994   -1.5121 C.3     1  UNL1        0.1121
     13 C          -1.2828   -1.8101   -0.2637 C.3     1  UNL1        0.1193
     14 C           1.2667   -3.1857   -0.1636 C.3     1  UNL1        0.1117
     15 C           0.2471   -3.1552    0.9813 C.3     1  UNL1        0.1108
     16 C          -2.1183   -0.5516   -0.1185 C.ar    1  UNL1        0.0682
     17 C           0.9286   -3.2267    2.3523 C.3     1  UNL1        0.0729
     18 C          -1.5151    0.7151    0.0177 C.ar    1  UNL1        0.1520
     19 C          -3.5214   -0.6160   -0.1139 C.ar    1  UNL1        0.1296
     20 C          -2.2939    1.8654    0.1271 C.ar    1  UNL1        0.1058
     21 C          -4.3043    0.5339    0.0011 C.ar    1  UNL1        0.0226
     22 C          -3.6870    1.7736    0.1170 C.ar    1  UNL1        0.1347
     23 C          -1.6134    3.1576    0.2554 C.ar    1  UNL1        0.1966
     24 C           0.4987    1.9901    0.1253 C.ar    1  UNL1        0.1392
     25 C          -0.1479    3.1569    0.2441 C.ar    1  UNL1        0.0288
     26 C           1.9769    1.9000    0.0889 C.ar    1  UNL1        0.0176
     27 C           2.7638    2.9354   -0.4439 C.ar    1  UNL1       -0.0476
     28 C           2.6316    0.7516    0.5651 C.ar    1  UNL1       -0.0476
     29 C           4.1580    2.8448   -0.4671 C.ar    1  UNL1       -0.0195
     30 C           4.0260    0.6526    0.5343 C.ar    1  UNL1       -0.0195
     31 C           4.7772    1.7033    0.0261 C.ar    1  UNL1        0.1169
     32 H           0.2346   -0.8854   -1.5727 H       1  UNL1        0.0649
     33 H           0.0056   -3.9061   -1.7776 H       1  UNL1        0.0647
     34 H          -1.9423   -2.6841   -0.3280 H       1  UNL1        0.0676
     35 H           2.0056   -2.3860   -0.0342 H       1  UNL1        0.0647
     36 H          -0.4514   -3.9992    0.9078 H       1  UNL1        0.0646
     37 H           1.5880   -2.3682    2.5152 H       1  UNL1        0.0584
     38 H           1.5071   -4.1475    2.4665 H       1  UNL1        0.0584
     39 H          -0.5047   -1.8566   -3.4483 H       1  UNL1        0.2100
     40 H           2.2194   -3.5076   -2.4111 H       1  UNL1        0.2100
     41 H           1.3599   -5.1533   -0.2583 H       1  UNL1        0.2100
     42 H          -5.3888    0.4834    0.0034 H       1  UNL1        0.0691
     43 H          -0.6154   -2.4146    3.1933 H       1  UNL1        0.2095
     44 H           0.3363    4.1189    0.3387 H       1  UNL1        0.0693
     45 H          -5.0976   -1.7077   -0.2207 H       1  UNL1        0.2922
     46 H          -3.9425    3.6663    0.2980 H       1  UNL1        0.2922
     47 H           2.3040    3.8289   -0.8594 H       1  UNL1        0.0626
     48 H           2.0626   -0.0789    0.9776 H       1  UNL1        0.0626
     49 H           4.7358    3.6682   -0.8748 H       1  UNL1        0.0654
     50 H           4.5216   -0.2381    0.9096 H       1  UNL1        0.0654
     51 H           6.5202    2.3874   -0.3476 H       1  UNL1        0.2921
@<TRIPOS>BOND
     1     1    13    1
     2     1    15    1
     3     2    11    1
     4     2    39    1
     5     3    12    1
     6     3    40    1
     7     4    14    1
     8     4    41    1
     9     5    18   ar
    10     5    24   ar
    11     6    17    1
    12     6    43    1
    13     7    19    1
    14     7    45    1
    15     8    22    1
    16     8    46    1
    17     9    23    2
    18    10    31    1
    19    10    51    1
    20    11    12    1
    21    11    13    1
    22    11    32    1
    23    12    14    1
    24    12    33    1
    25    13    16    1
    26    13    34    1
    27    14    15    1
    28    14    35    1
    29    15    17    1
    30    15    36    1
    31    16    18   ar
    32    16    19   ar
    33    17    37    1
    34    17    38    1
    35    18    20   ar
    36    19    21   ar
    37    20    22   ar
    38    20    23   ar
    39    21    22   ar
    40    21    42    1
    41    23    25   ar
    42    24    25   ar
    43    24    26    1
    44    25    44    1
    45    26    27   ar
    46    26    28   ar
    47    27    29   ar
    48    27    47    1
    49    28    30   ar
    50    28    48    1
    51    29    31   ar
    52    29    49    1
    53    30    31   ar
    54    30    50    1
