@<TRIPOS>MOLECULE
7650
 27 27 0 0 0
SMALL
GASTEIGER

@<TRIPOS>ATOM
      1 O          -0.7032   -0.0658    0.0021 O.3     1  UNL1       -0.4599
      2 O          -2.3075   -1.7053   -0.0017 O.2     1  UNL1       -0.2508
      3 C          -2.9350    0.6478    0.0042 C.3     1  UNL1        0.0447
      4 C          -4.3972    0.2102   -0.0203 C.3     1  UNL1       -0.0458
      5 C           0.2848   -1.0987    0.0013 C.3     1  UNL1        0.1175
      6 C           1.6423   -0.4439    0.0004 C.ar    1  UNL1       -0.0103
      7 C          -1.9844   -0.5268    0.0001 C.2     1  UNL1        0.3074
      8 C          -5.3357    1.4063    0.0109 C.3     1  UNL1       -0.0648
      9 C           2.2746   -0.1183   -1.2080 C.ar    1  UNL1       -0.0554
     10 C           2.2772   -0.1190    1.2077 C.ar    1  UNL1       -0.0554
     11 C           3.5275    0.4976   -1.2081 C.ar    1  UNL1       -0.0614
     12 C           3.5300    0.4969    1.2054 C.ar    1  UNL1       -0.0614
     13 C           4.1556    0.8023   -0.0020 C.ar    1  UNL1       -0.0617
     14 H          -2.7409    1.2383    0.9066 H       1  UNL1        0.0377
     15 H          -2.7206    1.2623   -0.8774 H       1  UNL1        0.0377
     16 H          -4.5953   -0.3826   -0.9213 H       1  UNL1        0.0268
     17 H          -4.6101   -0.4382    0.8381 H       1  UNL1        0.0268
     18 H           0.1745   -1.7295   -0.8894 H       1  UNL1        0.0749
     19 H           0.1755   -1.7298    0.8919 H       1  UNL1        0.0749
     20 H          -6.3778    1.0724   -0.0093 H       1  UNL1        0.0230
     21 H          -5.1865    1.9978    0.9200 H       1  UNL1        0.0230
     22 H          -5.1710    2.0575   -0.8536 H       1  UNL1        0.0230
     23 H           1.7933   -0.3434   -2.1571 H       1  UNL1        0.0621
     24 H           1.7981   -0.3450    2.1577 H       1  UNL1        0.0621
     25 H           4.0126    0.7414   -2.1497 H       1  UNL1        0.0618
     26 H           4.0172    0.7402    2.1460 H       1  UNL1        0.0618
     27 H           5.1309    1.2819   -0.0029 H       1  UNL1        0.0618
@<TRIPOS>BOND
     1     1     5    1
     2     1     7    1
     3     2     7    2
     4     3     4    1
     5     3     7    1
     6     3    14    1
     7     3    15    1
     8     4     8    1
     9     4    16    1
    10     4    17    1
    11     5     6    1
    12     5    18    1
    13     5    19    1
    14     6     9   ar
    15     6    10   ar
    16     8    20    1
    17     8    21    1
    18     8    22    1
    19     9    11   ar
    20     9    23    1
    21    10    12   ar
    22    10    24    1
    23    11    13   ar
    24    11    25    1
    25    12    13   ar
    26    12    26    1
    27    13    27    1
