@<TRIPOS>MOLECULE
5280445
 31 33 0 0 0
SMALL
GASTEIGER

@<TRIPOS>ATOM
      1 O          -0.2588    0.6586   -0.1386 O.2     1  UNL1       -0.4544
      2 O          -4.4786   -1.7228    0.2411 O.3     1  UNL1       -0.5058
      3 O          -2.1279   -2.9140    0.3481 O.2     1  UNL1       -0.2869
      4 O          -4.3578    2.9949   -0.3268 O.3     1  UNL1       -0.5065
      5 O           4.4552    2.1627    0.8109 O.3     1  UNL1       -0.5033
      6 O           6.0667    0.2305   -0.1940 O.3     1  UNL1       -0.5033
      7 C          -2.3324   -0.5912    0.0662 C.ar    1  UNL1        0.1055
      8 C          -1.6301    0.6007   -0.0959 C.ar    1  UNL1        0.1462
      9 C           0.4628   -0.5207   -0.0036 C.ar    1  UNL1        0.1393
     10 C           1.9333   -0.3469   -0.0573 C.ar    1  UNL1        0.0211
     11 C          -1.5667   -1.8319    0.2105 C.ar    1  UNL1        0.1966
     12 C          -0.1024   -1.7235    0.1789 C.ar    1  UNL1        0.0288
     13 C          -3.7312   -0.5855    0.0913 C.ar    1  UNL1        0.1347
     14 C          -2.3244    1.8033   -0.2261 C.ar    1  UNL1        0.0231
     15 C           2.5218    0.8394    0.4092 C.ar    1  UNL1       -0.0059
     16 C          -3.7172    1.7984   -0.1963 C.ar    1  UNL1        0.1239
     17 C          -4.4296    0.6119   -0.0401 C.ar    1  UNL1        0.0223
     18 C           2.7748   -1.3414   -0.5967 C.ar    1  UNL1       -0.0474
     19 C           3.9014    1.0021    0.3499 C.ar    1  UNL1        0.1589
     20 C           4.1641   -1.1729   -0.6480 C.ar    1  UNL1       -0.0159
     21 C           4.7191    0.0042   -0.1701 C.ar    1  UNL1        0.1583
     22 H           0.4482   -2.6451    0.3117 H       1  UNL1        0.0693
     23 H          -1.7871    2.7395   -0.3500 H       1  UNL1        0.0691
     24 H           1.9180    1.6417    0.8256 H       1  UNL1        0.0662
     25 H          -5.5146    0.5988   -0.0180 H       1  UNL1        0.0691
     26 H           2.3583   -2.2628   -0.9988 H       1  UNL1        0.0626
     27 H           4.7804   -1.9627   -1.0653 H       1  UNL1        0.0655
     28 H          -3.8624   -2.4862    0.3213 H       1  UNL1        0.2922
     29 H          -5.3175    2.8441   -0.2830 H       1  UNL1        0.2921
     30 H           5.4158    2.0529    0.6637 H       1  UNL1        0.2923
     31 H           6.4997   -0.5512   -0.5787 H       1  UNL1        0.2923
@<TRIPOS>BOND
     1     1     8   ar
     2     1     9   ar
     3     2    13    1
     4     2    28    1
     5     3    11    2
     6     4    16    1
     7     4    29    1
     8     5    19    1
     9     5    30    1
    10     6    21    1
    11     6    31    1
    12     7     8   ar
    13     7    11   ar
    14     7    13   ar
    15     8    14   ar
    16     9    10    1
    17     9    12   ar
    18    10    15   ar
    19    10    18   ar
    20    11    12   ar
    21    12    22    1
    22    13    17   ar
    23    14    16   ar
    24    14    23    1
    25    15    19   ar
    26    15    24    1
    27    16    17   ar
    28    17    25    1
    29    18    20   ar
    30    18    26    1
    31    19    21   ar
    32    20    21   ar
    33    20    27    1
