@<TRIPOS>MOLECULE
10207
 30 32 0 0 0
SMALL
GASTEIGER

@<TRIPOS>ATOM
      1 O           1.5579   -2.9504   -0.0594 O.3     1  UNL1       -0.5060
      2 O          -1.0099   -2.4138    0.0464 O.2     1  UNL1       -0.2864
      3 O          -0.0335    2.8309   -0.1366 O.2     1  UNL1       -0.2866
      4 O          -3.5104   -2.0634    0.1514 O.3     1  UNL1       -0.5060
      5 O           5.1774    0.9642    1.0130 O.3     1  UNL1       -0.3904
      6 C           0.8771    0.6622   -0.1231 C.ar    1  UNL1        0.0369
      7 C           0.6429   -0.7161   -0.0760 C.ar    1  UNL1        0.0745
      8 C          -1.8672   -0.2646    0.0265 C.ar    1  UNL1        0.0745
      9 C          -1.6286    1.1094   -0.0214 C.ar    1  UNL1        0.0366
     10 C          -0.7441   -1.2170    0.0014 C.2     1  UNL1        0.2015
     11 C          -0.2473    1.6260   -0.0967 C.2     1  UNL1        0.1947
     12 C           2.1887    1.1508   -0.1991 C.ar    1  UNL1       -0.0446
     13 C           1.7334   -1.5974   -0.1023 C.ar    1  UNL1        0.1287
     14 C           3.2718    0.2640   -0.2362 C.ar    1  UNL1       -0.0180
     15 C           3.0355   -1.1120   -0.1759 C.ar    1  UNL1       -0.0141
     16 C          -3.1858   -0.7335    0.0993 C.ar    1  UNL1        0.1283
     17 C          -2.7022    2.0072    0.0039 C.ar    1  UNL1       -0.0500
     18 C           4.6809    0.7748   -0.3008 C.3     1  UNL1        0.0694
     19 C          -4.2518    0.1600    0.1234 C.ar    1  UNL1       -0.0194
     20 C          -4.0128    1.5349    0.0749 C.ar    1  UNL1       -0.0576
     21 H           2.3719    2.2250   -0.2357 H       1  UNL1        0.0628
     22 H           3.8761   -1.8019   -0.1886 H       1  UNL1        0.0658
     23 H          -2.5272    3.0848   -0.0360 H       1  UNL1        0.0625
     24 H           5.3258    0.0614   -0.8242 H       1  UNL1        0.0607
     25 H           4.7240    1.7222   -0.8462 H       1  UNL1        0.0607
     26 H          -5.2700   -0.2138    0.1806 H       1  UNL1        0.0654
     27 H          -4.8468    2.2315    0.0934 H       1  UNL1        0.0619
     28 H           2.4147   -3.4054   -0.0836 H       1  UNL1        0.2922
     29 H          -2.6727   -2.5863    0.1281 H       1  UNL1        0.2922
     30 H           4.5094    1.4671    1.5101 H       1  UNL1        0.2098
@<TRIPOS>BOND
     1     1    13    1
     2     1    28    1
     3     2    10    2
     4     3    11    2
     5     4    16    1
     6     4    29    1
     7     5    18    1
     8     5    30    1
     9     6     7   ar
    10     6    11    1
    11     6    12   ar
    12     7    10    1
    13     7    13   ar
    14     8     9   ar
    15     8    10    1
    16     8    16   ar
    17     9    11    1
    18     9    17   ar
    19    12    14   ar
    20    12    21    1
    21    13    15   ar
    22    14    15   ar
    23    14    18    1
    24    15    22    1
    25    16    19   ar
    26    17    20   ar
    27    17    23    1
    28    18    24    1
    29    18    25    1
    30    19    20   ar
    31    19    26    1
    32    20    27    1
