@<TRIPOS>MOLECULE
124017
 68 73 0 0 0
SMALL
GASTEIGER

@<TRIPOS>ATOM
      1 O          -4.1565    0.7571   -0.6697 O.3     1  UNL1       -0.4811
      2 O           3.4675   -0.3758    0.7876 O.3     1  UNL1       -0.4811
      3 O          -4.0598    0.1374    2.2183 O.3     1  UNL1       -0.3868
      4 O          -0.7268    0.8974   -1.2603 O.3     1  UNL1       -0.5060
      5 O           4.1041    1.6039   -1.3030 O.3     1  UNL1       -0.3875
      6 O          -0.3649    0.3033    3.4537 O.3     1  UNL1       -0.5062
      7 O          -1.0215    3.8170    1.3834 O.3     1  UNL1       -0.5062
      8 O          -3.8021    5.2284   -2.1913 O.3     1  UNL1       -0.5065
      9 O          -3.8772   -5.2124   -0.6611 O.3     1  UNL1       -0.5033
     10 O          -6.6413   -5.0421   -0.4172 O.3     1  UNL1       -0.5033
     11 O           8.4282    0.3692    1.2601 O.3     1  UNL1       -0.5033
     12 O           9.5897   -1.4950   -0.3730 O.3     1  UNL1       -0.5033
     13 C          -2.0171    1.1403    1.3307 C.3     1  UNL1        0.0528
     14 C          -2.9490   -0.0894    1.3217 C.3     1  UNL1        0.1074
     15 C          -3.4371   -0.3555   -0.1144 C.3     1  UNL1        0.1518
     16 C          -0.5604    0.7125    1.1071 C.ar    1  UNL1        0.0461
     17 C          -2.5296    2.2365    0.4121 C.ar    1  UNL1        0.0461
     18 C           1.4146    0.3533   -0.3187 C.ar    1  UNL1        0.0387
     19 C           2.0741    0.3843   -1.6745 C.3     1  UNL1        0.0092
     20 C           0.0538    0.6671   -0.1607 C.ar    1  UNL1        0.1309
     21 C           3.5927    0.2924   -1.5851 C.3     1  UNL1        0.1004
     22 C          -3.5361    1.9703   -0.5272 C.ar    1  UNL1        0.1323
     23 C           3.9534   -0.7480   -0.5095 C.3     1  UNL1        0.1513
     24 C           2.1475   -0.0118    0.8155 C.ar    1  UNL1        0.1317
     25 C           0.2176    0.3415    2.2156 C.ar    1  UNL1        0.1277
     26 C          -4.3009   -1.6089   -0.1987 C.ar    1  UNL1       -0.0012
     27 C          -1.9906    3.5332    0.4595 C.ar    1  UNL1        0.1276
     28 C           1.5568   -0.0151    2.0776 C.ar    1  UNL1        0.0224
     29 C          -3.9843    2.9698   -1.3947 C.ar    1  UNL1        0.0221
     30 C           5.4556   -0.9661   -0.4396 C.ar    1  UNL1       -0.0012
     31 C          -2.4188    4.5293   -0.4162 C.ar    1  UNL1        0.0218
     32 C          -3.7022   -2.8567   -0.4473 C.ar    1  UNL1       -0.0098
     33 C          -5.6899   -1.5510    0.0106 C.ar    1  UNL1       -0.0513
     34 C          -3.4120    4.2355   -1.3403 C.ar    1  UNL1        0.1238
     35 C           6.2622   -0.1984    0.4179 C.ar    1  UNL1       -0.0098
     36 C           6.0638   -1.9168   -1.2761 C.ar    1  UNL1       -0.0513
     37 C          -4.4862   -4.0026   -0.4864 C.ar    1  UNL1        0.1586
     38 C          -6.4734   -2.7061   -0.0469 C.ar    1  UNL1       -0.0162
     39 C          -5.8644   -3.9244   -0.3106 C.ar    1  UNL1        0.1582
     40 C           7.6433   -0.3834    0.4327 C.ar    1  UNL1        0.1586
     41 C           7.4484   -2.1008   -1.2548 C.ar    1  UNL1       -0.0162
     42 C           8.2330   -1.3309   -0.4004 C.ar    1  UNL1        0.1582
     43 H          -2.0800    1.5873    2.3340 H       1  UNL1        0.0429
     44 H          -2.4350   -0.9772    1.7115 H       1  UNL1        0.0643
     45 H          -2.5845   -0.5416   -0.7765 H       1  UNL1        0.0811
     46 H           1.6894   -0.4631   -2.2545 H       1  UNL1        0.0342
     47 H           1.8109    1.3158   -2.1900 H       1  UNL1        0.0342
     48 H           3.9921    0.0077   -2.5655 H       1  UNL1        0.0637
     49 H           3.4925   -1.7148   -0.7593 H       1  UNL1        0.0811
     50 H           2.1514   -0.3073    2.9375 H       1  UNL1        0.0691
     51 H          -3.6798    0.2803    3.1026 H       1  UNL1        0.2100
     52 H          -4.7633    2.7327   -2.1118 H       1  UNL1        0.0691
     53 H          -1.9957    5.5276   -0.3913 H       1  UNL1        0.0691
     54 H          -2.6279   -2.9402   -0.5888 H       1  UNL1        0.0659
     55 H          -6.1645   -0.5950    0.2271 H       1  UNL1        0.0623
     56 H          -0.1909    1.0632   -2.0484 H       1  UNL1        0.2922
     57 H           5.0754    1.5424   -1.2809 H       1  UNL1        0.2100
     58 H           0.3283    0.1518    4.1204 H       1  UNL1        0.2921
     59 H           5.8019    0.5449    1.0637 H       1  UNL1        0.0659
     60 H           5.4633   -2.5226   -1.9517 H       1  UNL1        0.0623
     61 H          -7.5457   -2.6472    0.1013 H       1  UNL1        0.0655
     62 H          -0.6875    4.7138    1.2194 H       1  UNL1        0.2921
     63 H           7.8946   -2.8426   -1.9098 H       1  UNL1        0.0655
     64 H          -4.5102    4.8817   -2.7596 H       1  UNL1        0.2921
     65 H          -4.3763   -5.8410   -0.1074 H       1  UNL1        0.2923
     66 H          -6.2572   -5.5649   -1.1445 H       1  UNL1        0.2923
     67 H           7.8608    0.9303    1.8118 H       1  UNL1        0.2923
     68 H           9.8356   -2.2126   -0.9752 H       1  UNL1        0.2923
@<TRIPOS>BOND
     1     1    15    1
     2     1    22    1
     3     2    23    1
     4     2    24    1
     5     3    14    1
     6     3    51    1
     7     4    20    1
     8     4    56    1
     9     5    21    1
    10     5    57    1
    11     6    25    1
    12     6    58    1
    13     7    27    1
    14     7    62    1
    15     8    34    1
    16     8    64    1
    17     9    37    1
    18     9    65    1
    19    10    39    1
    20    10    66    1
    21    11    40    1
    22    11    67    1
    23    12    42    1
    24    12    68    1
    25    13    14    1
    26    13    16    1
    27    13    17    1
    28    13    43    1
    29    14    15    1
    30    14    44    1
    31    15    26    1
    32    15    45    1
    33    16    20   ar
    34    16    25   ar
    35    17    22   ar
    36    17    27   ar
    37    18    19    1
    38    18    20   ar
    39    18    24   ar
    40    19    21    1
    41    19    46    1
    42    19    47    1
    43    21    23    1
    44    21    48    1
    45    22    29   ar
    46    23    30    1
    47    23    49    1
    48    24    28   ar
    49    25    28   ar
    50    26    32   ar
    51    26    33   ar
    52    27    31   ar
    53    28    50    1
    54    29    34   ar
    55    29    52    1
    56    30    35   ar
    57    30    36   ar
    58    31    34   ar
    59    31    53    1
    60    32    37   ar
    61    32    54    1
    62    33    38   ar
    63    33    55    1
    64    35    40   ar
    65    35    59    1
    66    36    41   ar
    67    36    60    1
    68    37    39   ar
    69    38    39   ar
    70    38    61    1
    71    40    42   ar
    72    41    42   ar
    73    41    63    1
