@<TRIPOS>MOLECULE
636543
 68 70 0 0 0
SMALL
GASTEIGER

@<TRIPOS>ATOM
      1 O          -2.8710   -0.7930   -0.2272 O.3     1  UNL1       -0.4800
      2 O          -3.8244    2.6097   -1.3004 O.3     1  UNL1       -0.3834
      3 O          -3.4518   -1.3096   -2.9829 O.3     1  UNL1       -0.3913
      4 O          -8.6532    1.4409   -0.4915 O.3     1  UNL1       -0.4914
      5 O          -2.1829   -3.4033    0.3782 O.3     1  UNL1       -0.4914
      6 O          -8.7159    0.6097    2.1070 O.3     1  UNL1       -0.5033
      7 O           5.2831   -3.1006    0.4310 O.2     1  UNL1       -0.2708
      8 O           7.3302    4.7465    0.3478 O.3     1  UNL1       -0.5068
      9 N           5.8835   -1.3235   -0.9044 N.am    1  UNL1       -0.3115
     10 C          -3.1733    0.2574   -1.1676 C.3     1  UNL1        0.1530
     11 C          -3.7001    1.4943   -0.4067 C.3     1  UNL1        0.1192
     12 C          -5.0257    1.2713    0.2877 C.ar    1  UNL1       -0.0119
     13 C          -4.1196   -0.2827   -2.2437 C.3     1  UNL1        0.0839
     14 C          -6.2204    1.4753   -0.4154 C.ar    1  UNL1       -0.0106
     15 C          -5.0912    0.8323    1.6145 C.ar    1  UNL1       -0.0523
     16 C          -1.5475   -1.1230   -0.1146 C.ar    1  UNL1        0.1626
     17 C          -7.4663    1.2578    0.1720 C.ar    1  UNL1        0.1616
     18 C          -6.3281    0.6153    2.2263 C.ar    1  UNL1       -0.0162
     19 C          -1.2159   -2.4395    0.2351 C.ar    1  UNL1        0.1621
     20 C          -7.5066    0.8290    1.5038 C.ar    1  UNL1        0.1585
     21 C          -0.5229   -0.1957   -0.3001 C.ar    1  UNL1       -0.0157
     22 C           1.1553   -1.9085    0.0617 C.ar    1  UNL1       -0.0212
     23 C           0.1266   -2.8316    0.3085 C.ar    1  UNL1       -0.0091
     24 C           0.8083   -0.5835   -0.2286 C.ar    1  UNL1       -0.0509
     25 C           7.9972   -0.8817    0.3430 C.3     1  UNL1       -0.0120
     26 C           7.3091   -1.5549   -0.8487 C.3     1  UNL1        0.0159
     27 C           7.8271    0.6205    0.3541 C.ar    1  UNL1       -0.0457
     28 C           2.5620   -2.3214    0.1595 C.2     1  UNL1       -0.0496
     29 C           3.5842   -1.6560   -0.4067 C.2     1  UNL1        0.0007
     30 C           6.7397    1.1970    1.0263 C.ar    1  UNL1       -0.0551
     31 C           8.7326    1.4528   -0.3189 C.ar    1  UNL1       -0.0551
     32 C           4.9799   -2.1235   -0.2384 C.2     1  UNL1        0.2369
     33 C          -8.5505    1.8770   -1.8454 C.3     1  UNL1        0.0790
     34 C           6.5595    2.5811    1.0321 C.ar    1  UNL1       -0.0199
     35 C           8.5560    2.8380   -0.3102 C.ar    1  UNL1       -0.0199
     36 C          -2.6274   -3.4989    1.7305 C.3     1  UNL1        0.0790
     37 C           7.4731    3.3908    0.3631 C.ar    1  UNL1        0.1169
     38 H          -2.2933    0.5703   -1.7426 H       1  UNL1        0.0786
     39 H          -2.9747    1.7952    0.3600 H       1  UNL1        0.0682
     40 H          -5.0279   -0.7098   -1.8130 H       1  UNL1        0.0595
     41 H          -4.3760    0.5054   -2.9584 H       1  UNL1        0.0595
     42 H          -6.1401    1.8106   -1.4440 H       1  UNL1        0.0659
     43 H          -4.1781    0.6513    2.1787 H       1  UNL1        0.0622
     44 H          -2.9385    2.8085   -1.6465 H       1  UNL1        0.2104
     45 H          -6.3541    0.2754    3.2570 H       1  UNL1        0.0655
     46 H          -0.7200    0.8492   -0.5106 H       1  UNL1        0.0655
     47 H           0.3602   -3.8724    0.5319 H       1  UNL1        0.0661
     48 H          -4.1069   -1.7086   -3.5772 H       1  UNL1        0.2096
     49 H           1.5611    0.1796   -0.4011 H       1  UNL1        0.0625
     50 H           7.6200   -1.2954    1.2866 H       1  UNL1        0.0328
     51 H           9.0686   -1.1181    0.3175 H       1  UNL1        0.0328
     52 H           7.7185   -1.1786   -1.7934 H       1  UNL1        0.0465
     53 H           7.4902   -2.6342   -0.8083 H       1  UNL1        0.0465
     54 H           2.7568   -3.2248    0.7329 H       1  UNL1        0.0625
     55 H           5.5692   -0.4784   -1.3560 H       1  UNL1        0.1490
     56 H           6.0258    0.5657    1.5512 H       1  UNL1        0.0621
     57 H           9.5840    1.0300   -0.8474 H       1  UNL1        0.0621
     58 H           3.4361   -0.7661   -1.0026 H       1  UNL1        0.0669
     59 H          -8.5634    0.3271    3.0223 H       1  UNL1        0.2923
     60 H          -9.5573    1.9920   -2.2532 H       1  UNL1        0.0660
     61 H          -8.0280    1.1332   -2.4601 H       1  UNL1        0.0660
     62 H          -8.0544    2.8533   -1.9112 H       1  UNL1        0.0660
     63 H           5.7156    3.0033    1.5630 H       1  UNL1        0.0654
     64 H           9.2649    3.4826   -0.8230 H       1  UNL1        0.0654
     65 H          -1.8153   -3.8118    2.3962 H       1  UNL1        0.0660
     66 H          -3.0703   -2.5606    2.0799 H       1  UNL1        0.0660
     67 H          -3.4046   -4.2711    1.7728 H       1  UNL1        0.0660
     68 H           6.5495    4.9792    0.8758 H       1  UNL1        0.2921
@<TRIPOS>BOND
     1     1    10    1
     2     1    16    1
     3     2    11    1
     4     2    44    1
     5     3    13    1
     6     3    48    1
     7     4    17    1
     8     4    33    1
     9     5    19    1
    10     5    36    1
    11     6    20    1
    12     6    59    1
    13     7    32    2
    14     8    37    1
    15     8    68    1
    16     9    26    1
    17     9    32   am
    18     9    55    1
    19    10    11    1
    20    10    13    1
    21    10    38    1
    22    11    12    1
    23    11    39    1
    24    12    14   ar
    25    12    15   ar
    26    13    40    1
    27    13    41    1
    28    14    17   ar
    29    14    42    1
    30    15    18   ar
    31    15    43    1
    32    16    19   ar
    33    16    21   ar
    34    17    20   ar
    35    18    20   ar
    36    18    45    1
    37    19    23   ar
    38    21    24   ar
    39    21    46    1
    40    22    23   ar
    41    22    24   ar
    42    22    28    1
    43    23    47    1
    44    24    49    1
    45    25    26    1
    46    25    27    1
    47    25    50    1
    48    25    51    1
    49    26    52    1
    50    26    53    1
    51    27    30   ar
    52    27    31   ar
    53    28    29    2
    54    28    54    1
    55    29    32    1
    56    29    58    1
    57    30    34   ar
    58    30    56    1
    59    31    35   ar
    60    31    57    1
    61    33    60    1
    62    33    61    1
    63    33    62    1
    64    34    37   ar
    65    34    63    1
    66    35    37   ar
    67    35    64    1
    68    36    65    1
    69    36    66    1
    70    36    67    1
