@<TRIPOS>MOLECULE
1549026
 34 33 0 0 0
SMALL
GASTEIGER

@<TRIPOS>ATOM
      1 O           2.1368    0.2286   -0.3640 O.3     1  UNL1       -0.4606
      2 O           4.3101   -0.0123    0.3420 O.2     1  UNL1       -0.2512
      3 C          -1.8231   -2.0905   -0.4462 C.3     1  UNL1       -0.0285
      4 C          -2.9312   -1.0744   -0.1113 C.3     1  UNL1       -0.0308
      5 C          -0.4432   -1.7337    0.0882 C.2     1  UNL1       -0.0731
      6 C          -2.6608    0.2923   -0.6816 C.2     1  UNL1       -0.0850
      7 C           0.5982   -1.5278   -0.7431 C.2     1  UNL1       -0.0480
      8 C          -0.3458   -1.6247    1.5863 C.3     1  UNL1       -0.0437
      9 C          -2.5785    1.4680   -0.0281 C.2     1  UNL1       -0.0796
     10 C           2.0131   -1.1956   -0.3582 C.3     1  UNL1        0.1109
     11 C          -2.2751    2.7362   -0.7828 C.3     1  UNL1       -0.0440
     12 C          -2.7581    1.6635    1.4519 C.3     1  UNL1       -0.0440
     13 C           3.3572    0.6838    0.0202 C.2     1  UNL1        0.3042
     14 C           3.3728    2.1840   -0.0051 C.3     1  UNL1        0.0332
     15 H          -2.1111   -3.0645   -0.0290 H       1  UNL1        0.0313
     16 H          -1.7915   -2.2336   -1.5348 H       1  UNL1        0.0313
     17 H          -3.0920   -1.0531    0.9689 H       1  UNL1        0.0310
     18 H          -3.8741   -1.4346   -0.5420 H       1  UNL1        0.0310
     19 H          -2.5071    0.2935   -1.7609 H       1  UNL1        0.0572
     20 H           0.4387   -1.6021   -1.8178 H       1  UNL1        0.0605
     21 H          -0.6495   -2.5674    2.0518 H       1  UNL1        0.0274
     22 H          -0.9950   -0.8262    1.9550 H       1  UNL1        0.0274
     23 H           0.6604   -1.3915    1.9393 H       1  UNL1        0.0274
     24 H           2.6962   -1.6265   -1.0994 H       1  UNL1        0.0743
     25 H           2.2802   -1.6056    0.6214 H       1  UNL1        0.0743
     26 H          -1.3558    3.1932   -0.4018 H       1  UNL1        0.0274
     27 H          -2.1383    2.5604   -1.8549 H       1  UNL1        0.0274
     28 H          -3.0958    3.4513   -0.6655 H       1  UNL1        0.0274
     29 H          -3.5500    2.3965    1.6401 H       1  UNL1        0.0274
     30 H          -3.0339    0.7521    1.9858 H       1  UNL1        0.0274
     31 H          -1.8303    2.0374    1.8968 H       1  UNL1        0.0274
     32 H           2.6313    2.5737    0.6983 H       1  UNL1        0.0342
     33 H           3.1658    2.5400   -1.0181 H       1  UNL1        0.0342
     34 H           4.3611    2.5428    0.2954 H       1  UNL1        0.0342
@<TRIPOS>BOND
     1     1    10    1
     2     1    13    1
     3     2    13    2
     4     3     4    1
     5     3     5    1
     6     3    15    1
     7     3    16    1
     8     4     6    1
     9     4    17    1
    10     4    18    1
    11     5     7    2
    12     5     8    1
    13     6     9    2
    14     6    19    1
    15     7    10    1
    16     7    20    1
    17     8    21    1
    18     8    22    1
    19     8    23    1
    20     9    11    1
    21     9    12    1
    22    10    24    1
    23    10    25    1
    24    11    26    1
    25    11    27    1
    26    11    28    1
    27    12    29    1
    28    12    30    1
    29    12    31    1
    30    13    14    1
    31    14    32    1
    32    14    33    1
    33    14    34    1
