@<TRIPOS>MOLECULE
121719
 25 26 0 0 0
SMALL
GASTEIGER

@<TRIPOS>ATOM
      1 O           2.7276    0.7668   -0.2455 O.2     1  UNL1       -0.2924
      2 C          -1.3817   -0.0695   -0.4231 C.3     1  UNL1       -0.0247
      3 C          -0.8871    1.1277    0.4951 C.3     1  UNL1       -0.0278
      4 C          -0.4510   -0.9491    0.5231 C.3     1  UNL1       -0.0074
      5 C          -0.8112    0.0806    1.6507 C.3     1  UNL1       -0.0419
      6 C           0.5226    1.6654    0.1793 C.3     1  UNL1        0.0135
      7 C           1.0046   -0.8439    0.1862 C.2     1  UNL1       -0.0084
      8 C          -2.8858   -0.3845   -0.3148 C.3     1  UNL1       -0.0590
      9 C          -1.0268   -0.0007   -1.9142 C.3     1  UNL1       -0.0590
     10 C           1.5499    0.5488    0.0173 C.2     1  UNL1        0.1592
     11 C           1.7725   -1.9289    0.0335 C.2     1  UNL1       -0.0919
     12 H          -1.6127    1.9330    0.6484 H       1  UNL1        0.0310
     13 H          -0.7968   -1.9712    0.7090 H       1  UNL1        0.0355
     14 H          -1.7533   -0.1120    2.1751 H       1  UNL1        0.0274
     15 H          -0.0522    0.2570    2.4213 H       1  UNL1        0.0274
     16 H           0.8580    2.3170    0.9935 H       1  UNL1        0.0348
     17 H           0.4969    2.2494   -0.7467 H       1  UNL1        0.0348
     18 H          -3.1124   -1.3409   -0.7998 H       1  UNL1        0.0235
     19 H          -3.2425   -0.4531    0.7152 H       1  UNL1        0.0235
     20 H          -3.4765    0.3940   -0.8109 H       1  UNL1        0.0235
     21 H           0.0255    0.2191   -2.1074 H       1  UNL1        0.0235
     22 H          -1.2493   -0.9536   -2.4066 H       1  UNL1        0.0235
     23 H          -1.6105    0.7818   -2.4115 H       1  UNL1        0.0235
     24 H           1.3774   -2.9324    0.1500 H       1  UNL1        0.0539
     25 H           2.8258   -1.8350   -0.2188 H       1  UNL1        0.0539
@<TRIPOS>BOND
     1     1    10    2
     2     2     3    1
     3     2     4    1
     4     2     8    1
     5     2     9    1
     6     3     5    1
     7     3     6    1
     8     3    12    1
     9     4     5    1
    10     4     7    1
    11     4    13    1
    12     5    14    1
    13     5    15    1
    14     6    10    1
    15     6    16    1
    16     6    17    1
    17     7    10    1
    18     7    11    2
    19     8    18    1
    20     8    19    1
    21     8    20    1
    22     9    21    1
    23     9    22    1
    24     9    23    1
    25    11    24    1
    26    11    25    1
