@<TRIPOS>MOLECULE
92097
 81 85 0 0 0
SMALL
GASTEIGER

@<TRIPOS>ATOM
      1 O          -6.8167    1.2782   -0.9433 O.3     1  UNL1       -0.3912
      2 C          -1.2097    0.4506    0.2316 C.3     1  UNL1       -0.0262
      3 C          -2.7697    0.6112    0.4907 C.3     1  UNL1       -0.0250
      4 C          -0.5916   -0.9482    0.5568 C.3     1  UNL1       -0.0072
      5 C           1.7325    0.2959    0.0105 C.3     1  UNL1       -0.0072
      6 C          -3.4946   -0.5113   -0.3383 C.3     1  UNL1       -0.0278
      7 C           3.1925   -0.0814    0.5140 C.3     1  UNL1       -0.0258
      8 C           0.8758   -0.9949    0.0233 C.2     1  UNL1       -0.0611
      9 C          -0.3709    1.6303    0.7667 C.3     1  UNL1       -0.0481
     10 C          -1.4683   -2.0358   -0.1388 C.3     1  UNL1       -0.0433
     11 C           3.8582   -1.3268   -0.1782 C.3     1  UNL1       -0.0250
     12 C           1.1124    1.3348    0.9796 C.3     1  UNL1       -0.0433
     13 C          -5.0607   -0.3868   -0.4532 C.3     1  UNL1       -0.0056
     14 C          -2.9808   -1.9047    0.0677 C.3     1  UNL1       -0.0483
     15 C          -3.2303    1.9912   -0.0631 C.3     1  UNL1       -0.0447
     16 C           4.1840    1.0872    0.7923 C.3     1  UNL1       -0.0437
     17 C           2.8371   -2.2133   -0.9381 C.3     1  UNL1       -0.0288
     18 C          -5.4074    1.0494   -0.9550 C.3     1  UNL1        0.0606
     19 C          -3.0989    0.5650    2.0042 C.3     1  UNL1       -0.0590
     20 C          -0.5281   -1.2784    2.0665 C.3     1  UNL1       -0.0556
     21 C           1.4420   -2.1389   -0.4111 C.2     1  UNL1       -0.0832
     22 C          -4.7427    2.1573   -0.1462 C.3     1  UNL1       -0.0258
     23 C           4.9736   -0.9509   -1.1814 C.3     1  UNL1       -0.0466
     24 C           5.3608    1.3483   -0.1772 C.3     1  UNL1       -0.0346
     25 C           1.7463    0.8990   -1.4062 C.3     1  UNL1       -0.0556
     26 C           5.9990    0.0295   -0.6307 C.3     1  UNL1       -0.0473
     27 C           4.4906   -2.2030    0.9422 C.3     1  UNL1       -0.0590
     28 C          -5.5809   -1.3934   -1.5164 C.3     1  UNL1       -0.0572
     29 C          -5.8137   -0.7229    0.8496 C.3     1  UNL1       -0.0572
     30 C           4.9281    2.1853   -1.3939 C.3     1  UNL1       -0.0598
     31 C           6.4310    2.1778    0.5706 C.3     1  UNL1       -0.0598
     32 H          -1.1217    0.5362   -0.8634 H       1  UNL1        0.0314
     33 H          -3.1436   -0.3740   -1.3755 H       1  UNL1        0.0312
     34 H           2.9678   -0.4325    1.5377 H       1  UNL1        0.0315
     35 H          -0.7664    2.0254    1.7069 H       1  UNL1        0.0269
     36 H          -0.4533    2.4592    0.0505 H       1  UNL1        0.0269
     37 H          -1.1808   -3.0382    0.2039 H       1  UNL1        0.0274
     38 H          -1.2816   -2.0127   -1.2220 H       1  UNL1        0.0274
     39 H           1.6344    2.2959    0.9090 H       1  UNL1        0.0274
     40 H           1.2614    1.0079    2.0159 H       1  UNL1        0.0274
     41 H          -3.4498   -2.6797   -0.5469 H       1  UNL1        0.0269
     42 H          -3.2414   -2.1481    1.1006 H       1  UNL1        0.0269
     43 H          -2.8192    2.1366   -1.0711 H       1  UNL1        0.0271
     44 H          -2.8303    2.8044    0.5537 H       1  UNL1        0.0271
     45 H           3.6563    2.0284    0.9661 H       1  UNL1        0.0274
     46 H           4.6321    0.8522    1.7705 H       1  UNL1        0.0274
     47 H           3.1644   -3.2611   -0.9139 H       1  UNL1        0.0313
     48 H           2.7947   -1.9561   -2.0042 H       1  UNL1        0.0313
     49 H          -5.0857    1.1425   -2.0008 H       1  UNL1        0.0599
     50 H          -2.2921    0.9678    2.6208 H       1  UNL1        0.0235
     51 H          -3.3021   -0.4434    2.3669 H       1  UNL1        0.0235
     52 H          -3.9756    1.1634    2.2624 H       1  UNL1        0.0235
     53 H          -1.4947   -1.5876    2.4686 H       1  UNL1        0.0238
     54 H          -0.1833   -0.4382    2.6731 H       1  UNL1        0.0238
     55 H           0.1532   -2.1164    2.2610 H       1  UNL1        0.0238
     56 H           0.8955   -3.0768   -0.4210 H       1  UNL1        0.0572
     57 H          -5.1948    2.2223    0.8498 H       1  UNL1        0.0290
     58 H          -4.9698    3.1249   -0.6124 H       1  UNL1        0.0290
     59 H           4.5350   -0.5329   -2.0942 H       1  UNL1        0.0271
     60 H           5.5001   -1.8588   -1.5051 H       1  UNL1        0.0271
     61 H           2.3377    0.3063   -2.1077 H       1  UNL1        0.0238
     62 H           0.7444    0.9736   -1.8390 H       1  UNL1        0.0238
     63 H           2.1528    1.9145   -1.3945 H       1  UNL1        0.0238
     64 H           6.5396   -0.4361    0.2022 H       1  UNL1        0.0271
     65 H           6.7548    0.2238   -1.4029 H       1  UNL1        0.0271
     66 H           5.1779   -1.6294    1.5724 H       1  UNL1        0.0235
     67 H           5.0517   -3.0450    0.5210 H       1  UNL1        0.0235
     68 H           3.7185   -2.6211    1.5988 H       1  UNL1        0.0235
     69 H          -5.0293   -1.3000   -2.4588 H       1  UNL1        0.0236
     70 H          -5.4950   -2.4313   -1.1781 H       1  UNL1        0.0236
     71 H          -6.6418   -1.2256   -1.7415 H       1  UNL1        0.0236
     72 H          -5.5002   -1.6880    1.2604 H       1  UNL1        0.0236
     73 H          -5.6806    0.0334    1.6231 H       1  UNL1        0.0236
     74 H          -6.8938   -0.7931    0.6728 H       1  UNL1        0.0236
     75 H           5.7975    2.4882   -1.9898 H       1  UNL1        0.0235
     76 H           4.2679    1.6395   -2.0678 H       1  UNL1        0.0235
     77 H           4.4120    3.1002   -1.0818 H       1  UNL1        0.0235
     78 H           6.0208    3.1349    0.9125 H       1  UNL1        0.0235
     79 H           6.8078    1.6437    1.4504 H       1  UNL1        0.0235
     80 H           7.2901    2.3929   -0.0752 H       1  UNL1        0.0235
     81 H          -6.9691    2.1667   -1.3192 H       1  UNL1        0.2098
@<TRIPOS>BOND
     1     1    18    1
     2     1    81    1
     3     2     3    1
     4     2     4    1
     5     2     9    1
     6     2    32    1
     7     3     6    1
     8     3    15    1
     9     3    19    1
    10     4     8    1
    11     4    10    1
    12     4    20    1
    13     5     7    1
    14     5     8    1
    15     5    12    1
    16     5    25    1
    17     6    13    1
    18     6    14    1
    19     6    33    1
    20     7    11    1
    21     7    16    1
    22     7    34    1
    23     8    21    2
    24     9    12    1
    25     9    35    1
    26     9    36    1
    27    10    14    1
    28    10    37    1
    29    10    38    1
    30    11    17    1
    31    11    23    1
    32    11    27    1
    33    12    39    1
    34    12    40    1
    35    13    18    1
    36    13    28    1
    37    13    29    1
    38    14    41    1
    39    14    42    1
    40    15    22    1
    41    15    43    1
    42    15    44    1
    43    16    24    1
    44    16    45    1
    45    16    46    1
    46    17    21    1
    47    17    47    1
    48    17    48    1
    49    18    22    1
    50    18    49    1
    51    19    50    1
    52    19    51    1
    53    19    52    1
    54    20    53    1
    55    20    54    1
    56    20    55    1
    57    21    56    1
    58    22    57    1
    59    22    58    1
    60    23    26    1
    61    23    59    1
    62    23    60    1
    63    24    26    1
    64    24    30    1
    65    24    31    1
    66    25    61    1
    67    25    62    1
    68    25    63    1
    69    26    64    1
    70    26    65    1
    71    27    66    1
    72    27    67    1
    73    27    68    1
    74    28    69    1
    75    28    70    1
    76    28    71    1
    77    29    72    1
    78    29    73    1
    79    29    74    1
    80    30    75    1
    81    30    76    1
    82    30    77    1
    83    31    78    1
    84    31    79    1
    85    31    80    1
