@<TRIPOS>MOLECULE
72936
 59 61 0 0 0
SMALL
GASTEIGER

@<TRIPOS>ATOM
      1 O          -0.2495    0.8979   -0.6059 O.3     1  UNL1       -0.4825
      2 O           4.4482    0.2819   -1.0136 O.3     1  UNL1       -0.5063
      3 O           0.2739    4.5879    1.0347 O.2     1  UNL1       -0.2917
      4 O           2.8657    4.2756    0.9659 O.3     1  UNL1       -0.5058
      5 O          -3.2967    0.9629    2.1718 O.3     1  UNL1       -0.5063
      6 O          -6.2771   -0.7525   -1.1665 O.3     1  UNL1       -0.5066
      7 C           1.7417   -1.9345   -0.4083 C.3     1  UNL1       -0.0128
      8 C           1.8274   -0.7810   -1.4425 C.3     1  UNL1       -0.0139
      9 C           2.0884    0.5728   -0.8086 C.ar    1  UNL1        0.0371
     10 C           1.0158    1.3780   -0.3847 C.ar    1  UNL1        0.1420
     11 C          -1.2414    1.4473    0.2761 C.3     1  UNL1        0.1355
     12 C          -1.2696    2.9637    0.1659 C.3     1  UNL1        0.0521
     13 C           1.2495    2.6292    0.1939 C.ar    1  UNL1        0.1009
     14 C           0.8910   -3.0897   -0.9912 C.3     1  UNL1       -0.0277
     15 C           0.0917    3.4794    0.5344 C.2     1  UNL1        0.1740
     16 C           3.1182   -2.4012    0.0770 C.2     1  UNL1       -0.0760
     17 C           3.3924    1.0421   -0.5979 C.ar    1  UNL1        0.1270
     18 C          -2.5866    0.8528   -0.0986 C.ar    1  UNL1        0.0347
     19 C           2.5601    3.0680    0.3992 C.ar    1  UNL1        0.1343
     20 C           3.6333    2.2737    0.0113 C.ar    1  UNL1        0.0225
     21 C           0.6812   -4.2301   -0.0286 C.2     1  UNL1       -0.0847
     22 C           4.0790   -2.9765   -0.9297 C.3     1  UNL1       -0.0438
     23 C          -3.5712    0.6310    0.8728 C.ar    1  UNL1        0.1270
     24 C          -2.8894    0.5364   -1.4363 C.ar    1  UNL1       -0.0481
     25 C           3.4624   -2.3070    1.3745 C.2     1  UNL1       -0.0994
     26 C          -0.2784   -4.3455    0.9101 C.2     1  UNL1       -0.0796
     27 C          -4.8135    0.0917    0.5400 C.ar    1  UNL1        0.0217
     28 C          -4.1302   -0.0050   -1.7776 C.ar    1  UNL1       -0.0196
     29 C          -5.0782   -0.2255   -0.7882 C.ar    1  UNL1        0.1203
     30 C          -0.3334   -5.5613    1.7958 C.3     1  UNL1       -0.0440
     31 C          -1.3364   -3.3184    1.1965 C.3     1  UNL1       -0.0440
     32 H           1.1832   -1.5536    0.4602 H       1  UNL1        0.0352
     33 H           0.8863   -0.7194   -2.0052 H       1  UNL1        0.0321
     34 H           2.5760   -0.9820   -2.2171 H       1  UNL1        0.0321
     35 H          -0.9780    1.1263    1.2937 H       1  UNL1        0.0790
     36 H          -2.0095    3.3910    0.8515 H       1  UNL1        0.0385
     37 H          -1.4920    3.2998   -0.8526 H       1  UNL1        0.0385
     38 H           1.3634   -3.4878   -1.8992 H       1  UNL1        0.0313
     39 H          -0.0822   -2.7066   -1.3222 H       1  UNL1        0.0313
     40 H           4.6439    2.6329    0.1746 H       1  UNL1        0.0691
     41 H           1.4145   -5.0304   -0.1248 H       1  UNL1        0.0572
     42 H           3.6787   -3.8924   -1.3728 H       1  UNL1        0.0274
     43 H           4.2853   -2.2678   -1.7362 H       1  UNL1        0.0274
     44 H           5.0446   -3.2259   -0.4753 H       1  UNL1        0.0274
     45 H          -2.1538    0.7031   -2.2235 H       1  UNL1        0.0624
     46 H           2.7813   -1.9010    2.1151 H       1  UNL1        0.0534
     47 H           4.4357   -2.6343    1.7321 H       1  UNL1        0.0534
     48 H           5.2754    0.6958   -0.7180 H       1  UNL1        0.2921
     49 H          -5.5642   -0.0790    1.3028 H       1  UNL1        0.0691
     50 H          -4.3481   -0.2552   -2.8119 H       1  UNL1        0.0654
     51 H           2.0210    4.7343    1.1790 H       1  UNL1        0.2922
     52 H          -1.2935   -6.0731    1.6778 H       1  UNL1        0.0274
     53 H          -0.2166   -5.2728    2.8455 H       1  UNL1        0.0274
     54 H           0.4575   -6.2820    1.5607 H       1  UNL1        0.0274
     55 H          -1.2709   -2.9882    2.2381 H       1  UNL1        0.0274
     56 H          -1.2569   -2.4258    0.5681 H       1  UNL1        0.0274
     57 H          -2.3325   -3.7469    1.0346 H       1  UNL1        0.0274
     58 H          -4.0633    0.7359    2.7257 H       1  UNL1        0.2921
     59 H          -6.8399   -0.8518   -0.3828 H       1  UNL1        0.2921
@<TRIPOS>BOND
     1     1    10    1
     2     1    11    1
     3     2    17    1
     4     2    48    1
     5     3    15    2
     6     4    19    1
     7     4    51    1
     8     5    23    1
     9     5    58    1
    10     6    29    1
    11     6    59    1
    12     7     8    1
    13     7    14    1
    14     7    16    1
    15     7    32    1
    16     8     9    1
    17     8    33    1
    18     8    34    1
    19     9    10   ar
    20     9    17   ar
    21    10    13   ar
    22    11    12    1
    23    11    18    1
    24    11    35    1
    25    12    15    1
    26    12    36    1
    27    12    37    1
    28    13    15    1
    29    13    19   ar
    30    14    21    1
    31    14    38    1
    32    14    39    1
    33    16    22    1
    34    16    25    2
    35    17    20   ar
    36    18    23   ar
    37    18    24   ar
    38    19    20   ar
    39    20    40    1
    40    21    26    2
    41    21    41    1
    42    22    42    1
    43    22    43    1
    44    22    44    1
    45    23    27   ar
    46    24    28   ar
    47    24    45    1
    48    25    46    1
    49    25    47    1
    50    26    30    1
    51    26    31    1
    52    27    29   ar
    53    27    49    1
    54    28    29   ar
    55    28    50    1
    56    30    52    1
    57    30    53    1
    58    30    54    1
    59    31    55    1
    60    31    56    1
    61    31    57    1
