@<TRIPOS>MOLECULE
637542
 20 20 0 0 0
SMALL
GASTEIGER

@<TRIPOS>ATOM
      1 O           4.4497    0.3431   -0.0797 O.3     1  UNL1       -0.5068
      2 O          -4.2227    1.1477   -0.2865 O.3     1  UNL1       -0.4775
      3 O          -3.9841   -1.0275    0.2154 O.2     1  UNL1       -0.2458
      4 C           0.3309   -0.2643    0.0631 C.ar    1  UNL1       -0.0246
      5 C           0.8644    1.0250    0.2141 C.ar    1  UNL1       -0.0511
      6 C           1.2182   -1.3366   -0.1097 C.ar    1  UNL1       -0.0511
      7 C           2.2428    1.2458    0.1625 C.ar    1  UNL1       -0.0196
      8 C           2.5992   -1.1195   -0.1570 C.ar    1  UNL1       -0.0196
      9 C           3.0996    0.1695   -0.0248 C.ar    1  UNL1        0.1169
     10 C          -1.1159   -0.5333    0.1201 C.2     1  UNL1       -0.0478
     11 C          -2.0613    0.3919   -0.1080 C.2     1  UNL1        0.0229
     12 C          -3.4860    0.0534   -0.0335 C.2     1  UNL1        0.3296
     13 H           0.2189    1.8833    0.3819 H       1  UNL1        0.0625
     14 H           0.8464   -2.3535   -0.2167 H       1  UNL1        0.0625
     15 H           2.6208    2.2569    0.2742 H       1  UNL1        0.0654
     16 H           3.2802   -1.9541   -0.2969 H       1  UNL1        0.0654
     17 H          -1.4082   -1.5571    0.3486 H       1  UNL1        0.0626
     18 H          -1.8361    1.4196   -0.3589 H       1  UNL1        0.0689
     19 H           4.6428    1.2896    0.0250 H       1  UNL1        0.2921
     20 H          -5.1484    0.8351   -0.2193 H       1  UNL1        0.2954
@<TRIPOS>BOND
     1     1     9    1
     2     1    19    1
     3     2    12    1
     4     2    20    1
     5     3    12    2
     6     4     5   ar
     7     4     6   ar
     8     4    10    1
     9     5     7   ar
    10     5    13    1
    11     6     8   ar
    12     6    14    1
    13     7     9   ar
    14     7    15    1
    15     8     9   ar
    16     8    16    1
    17    10    11    2
    18    10    17    1
    19    11    12    1
    20    11    18    1
