@<TRIPOS>MOLECULE
442402
 39 41 0 0 0
SMALL
GASTEIGER

@<TRIPOS>ATOM
      1 C          -0.1488    0.4010    0.3750 C.3     1  UNL1       -0.0114
      2 C           1.1477    1.1368   -0.0197 C.3     1  UNL1       -0.0129
      3 C          -0.0481   -1.1751    0.3883 C.3     1  UNL1       -0.0219
      4 C           0.6634    1.2110    1.3900 C.3     1  UNL1       -0.0388
      5 C          -1.5160    0.9884   -0.1014 C.3     1  UNL1       -0.0282
      6 C          -1.4262   -1.8617    0.2286 C.3     1  UNL1       -0.0468
      7 C          -2.0593    0.1186   -1.2559 C.3     1  UNL1       -0.0473
      8 C           0.8862   -1.6508   -0.7671 C.3     1  UNL1       -0.0285
      9 C           2.3267    0.3248   -0.3723 C.2     1  UNL1       -0.0729
     10 C          -2.2928   -1.3430   -0.9077 C.3     1  UNL1       -0.0520
     11 C           0.5139   -1.7078    1.7346 C.3     1  UNL1       -0.0587
     12 C          -2.5101    1.0685    1.0770 C.3     1  UNL1       -0.0593
     13 C          -1.4145    2.4268   -0.6716 C.3     1  UNL1       -0.0593
     14 C           2.2176   -0.9555   -0.7685 C.2     1  UNL1       -0.0842
     15 C           3.6583    1.0192   -0.3277 C.3     1  UNL1       -0.0435
     16 H           1.0982    2.0575   -0.5880 H       1  UNL1        0.0351
     17 H           1.2514    0.7277    2.1595 H       1  UNL1        0.0277
     18 H           0.2695    2.1609    1.7368 H       1  UNL1        0.0277
     19 H          -1.9919   -1.7711    1.1632 H       1  UNL1        0.0271
     20 H          -1.2954   -2.9449    0.0973 H       1  UNL1        0.0271
     21 H          -1.3443    0.1566   -2.0897 H       1  UNL1        0.0271
     22 H          -2.9943    0.5376   -1.6504 H       1  UNL1        0.0271
     23 H           0.4216   -1.4932   -1.7473 H       1  UNL1        0.0313
     24 H           1.0582   -2.7307   -0.6734 H       1  UNL1        0.0313
     25 H          -2.1281   -1.9497   -1.8069 H       1  UNL1        0.0266
     26 H          -3.3461   -1.4932   -0.6396 H       1  UNL1        0.0266
     27 H          -0.0771   -1.3374    2.5803 H       1  UNL1        0.0235
     28 H           0.4865   -2.8035    1.7661 H       1  UNL1        0.0235
     29 H           1.5555   -1.4181    1.9052 H       1  UNL1        0.0235
     30 H          -2.6115    0.1322    1.6261 H       1  UNL1        0.0235
     31 H          -2.1878    1.8181    1.8094 H       1  UNL1        0.0235
     32 H          -3.5086    1.3577    0.7298 H       1  UNL1        0.0235
     33 H          -0.9929    3.1299    0.0543 H       1  UNL1        0.0235
     34 H          -0.7978    2.4626   -1.5765 H       1  UNL1        0.0235
     35 H          -2.4046    2.8081   -0.9496 H       1  UNL1        0.0235
     36 H           3.0882   -1.5262   -1.0779 H       1  UNL1        0.0572
     37 H           3.6619    1.8801   -1.0045 H       1  UNL1        0.0274
     38 H           4.4790    0.3573   -0.6247 H       1  UNL1        0.0274
     39 H           3.8657    1.3738    0.6870 H       1  UNL1        0.0274
@<TRIPOS>BOND
     1     1     2    1
     2     1     3    1
     3     1     4    1
     4     1     5    1
     5     2     4    1
     6     2     9    1
     7     2    16    1
     8     3     6    1
     9     3     8    1
    10     3    11    1
    11     4    17    1
    12     4    18    1
    13     5     7    1
    14     5    12    1
    15     5    13    1
    16     6    10    1
    17     6    19    1
    18     6    20    1
    19     7    10    1
    20     7    21    1
    21     7    22    1
    22     8    14    1
    23     8    23    1
    24     8    24    1
    25     9    14    2
    26     9    15    1
    27    10    25    1
    28    10    26    1
    29    11    27    1
    30    11    28    1
    31    11    29    1
    32    12    30    1
    33    12    31    1
    34    12    32    1
    35    13    33    1
    36    13    34    1
    37    13    35    1
    38    14    36    1
    39    15    37    1
    40    15    38    1
    41    15    39    1
