@<TRIPOS>MOLECULE
445070
 42 41 0 0 0
SMALL
GASTEIGER

@<TRIPOS>ATOM
      1 O           3.3449   -2.8124    0.7110 O.3     1  UNL1       -0.3910
      2 C          -1.3169   -0.3646    1.2901 C.3     1  UNL1       -0.0286
      3 C           1.1709    1.9034   -0.7314 C.3     1  UNL1       -0.0308
      4 C          -0.4897    0.8463    0.8947 C.2     1  UNL1       -0.0762
      5 C           2.6108    1.7368   -0.2179 C.3     1  UNL1       -0.0285
      6 C          -2.8155   -0.0950    1.4756 C.3     1  UNL1       -0.0308
      7 C           0.2536    0.8221   -0.2280 C.2     1  UNL1       -0.0847
      8 C           3.2574    0.4183   -0.6030 C.2     1  UNL1       -0.0741
      9 C          -0.5124    1.9985    1.8631 C.3     1  UNL1       -0.0438
     10 C          -3.5104    0.2701    0.1926 C.2     1  UNL1       -0.0850
     11 C          -4.1363   -0.5715   -0.6537 C.2     1  UNL1       -0.0796
     12 C           3.4468    0.1988   -2.0796 C.3     1  UNL1       -0.0437
     13 C           3.6081   -0.4797    0.3409 C.2     1  UNL1       -0.0600
     14 C           4.1981   -1.8385    0.1273 C.3     1  UNL1        0.0626
     15 C          -4.8146   -0.0522   -1.8931 C.3     1  UNL1       -0.0440
     16 C          -4.2040   -2.0632   -0.4814 C.3     1  UNL1       -0.0440
     17 H          -1.1883   -1.1745    0.5591 H       1  UNL1        0.0313
     18 H          -0.9130   -0.7529    2.2339 H       1  UNL1        0.0313
     19 H           1.1540    1.8906   -1.8275 H       1  UNL1        0.0310
     20 H           0.7962    2.8937   -0.4484 H       1  UNL1        0.0310
     21 H           3.2249    2.5577   -0.6092 H       1  UNL1        0.0313
     22 H           2.6135    1.8608    0.8738 H       1  UNL1        0.0313
     23 H          -3.2829   -0.9769    1.9285 H       1  UNL1        0.0310
     24 H          -2.9751    0.7117    2.2012 H       1  UNL1        0.0310
     25 H           0.2330   -0.0732   -0.8503 H       1  UNL1        0.0572
     26 H           0.3189    2.6929    1.7177 H       1  UNL1        0.0274
     27 H          -0.4383    1.6308    2.8916 H       1  UNL1        0.0274
     28 H          -1.4449    2.5619    1.7600 H       1  UNL1        0.0274
     29 H          -3.4901    1.3338   -0.0425 H       1  UNL1        0.0572
     30 H           4.3276   -0.4103   -2.2997 H       1  UNL1        0.0274
     31 H           3.5947    1.1531   -2.5967 H       1  UNL1        0.0274
     32 H           2.5633   -0.2866   -2.5058 H       1  UNL1        0.0274
     33 H           3.4323   -0.2208    1.3851 H       1  UNL1        0.0594
     34 H           5.1797   -1.9041    0.6077 H       1  UNL1        0.0601
     35 H           4.3174   -2.0977   -0.9260 H       1  UNL1        0.0601
     36 H          -5.8756   -0.3234   -1.8852 H       1  UNL1        0.0274
     37 H          -4.7505    1.0371   -1.9781 H       1  UNL1        0.0274
     38 H          -4.3513   -0.4837   -2.7871 H       1  UNL1        0.0274
     39 H          -3.8549   -2.5624   -1.3915 H       1  UNL1        0.0274
     40 H          -5.2349   -2.3746   -0.2881 H       1  UNL1        0.0274
     41 H          -3.5811   -2.4316    0.3377 H       1  UNL1        0.0274
     42 H           3.2145   -2.5662    1.6409 H       1  UNL1        0.2098
@<TRIPOS>BOND
     1     1    14    1
     2     1    42    1
     3     2     4    1
     4     2     6    1
     5     2    17    1
     6     2    18    1
     7     3     5    1
     8     3     7    1
     9     3    19    1
    10     3    20    1
    11     4     7    2
    12     4     9    1
    13     5     8    1
    14     5    21    1
    15     5    22    1
    16     6    10    1
    17     6    23    1
    18     6    24    1
    19     7    25    1
    20     8    12    1
    21     8    13    2
    22     9    26    1
    23     9    27    1
    24     9    28    1
    25    10    11    2
    26    10    29    1
    27    11    15    1
    28    11    16    1
    29    12    30    1
    30    12    31    1
    31    12    32    1
    32    13    14    1
    33    13    33    1
    34    14    34    1
    35    14    35    1
    36    15    36    1
    37    15    37    1
    38    15    38    1
    39    16    39    1
    40    16    40    1
    41    16    41    1
