@<TRIPOS>MOLECULE
10104370
 39 39 0 0 0
SMALL
GASTEIGER

@<TRIPOS>ATOM
      1 C          -1.0613    0.4793    0.1525 C.3     1  UNL1       -0.0164
      2 C          -2.0953    0.5452    1.2884 C.3     1  UNL1       -0.0426
      3 C          -1.7668    0.4138   -1.2187 C.3     1  UNL1       -0.0280
      4 C          -3.0400   -0.6611    1.2505 C.3     1  UNL1       -0.0315
      5 C          -0.0626    1.6313    0.2076 C.2     1  UNL1       -0.0729
      6 C          -3.5250   -1.0093   -0.1343 C.2     1  UNL1       -0.0765
      7 C          -2.9513   -0.5074   -1.2396 C.2     1  UNL1       -0.0845
      8 C           1.3989    1.2719    0.3917 C.3     1  UNL1       -0.0283
      9 C           1.9799    0.4633   -0.7759 C.3     1  UNL1       -0.0308
     10 C          -4.6933   -1.9496   -0.2051 C.3     1  UNL1       -0.0438
     11 C          -0.4496    2.9169    0.1223 C.2     1  UNL1       -0.0992
     12 C           3.4553    0.2129   -0.5960 C.2     1  UNL1       -0.0850
     13 C           4.0215   -0.8549   -0.0009 C.2     1  UNL1       -0.0796
     14 C           5.5184   -0.9979    0.0940 C.3     1  UNL1       -0.0440
     15 C           3.2511   -1.9788    0.6355 C.3     1  UNL1       -0.0440
     16 H          -0.5121   -0.4633    0.2884 H       1  UNL1        0.0349
     17 H          -2.6921    1.4632    1.2106 H       1  UNL1        0.0274
     18 H          -1.5926    0.5792    2.2634 H       1  UNL1        0.0274
     19 H          -1.0451    0.0828   -1.9757 H       1  UNL1        0.0313
     20 H          -2.1177    1.4045   -1.5326 H       1  UNL1        0.0313
     21 H          -3.8949   -0.4460    1.9030 H       1  UNL1        0.0310
     22 H          -2.5296   -1.5360    1.6709 H       1  UNL1        0.0310
     23 H          -3.3420   -0.7597   -2.2230 H       1  UNL1        0.0572
     24 H           1.5033    0.7088    1.3282 H       1  UNL1        0.0313
     25 H           1.9953    2.1852    0.5225 H       1  UNL1        0.0313
     26 H           1.8338    1.0059   -1.7184 H       1  UNL1        0.0310
     27 H           1.4463   -0.4852   -0.9022 H       1  UNL1        0.0310
     28 H          -4.4438   -2.8994    0.2779 H       1  UNL1        0.0274
     29 H          -4.9830   -2.1661   -1.2391 H       1  UNL1        0.0274
     30 H          -5.5627   -1.5174    0.3010 H       1  UNL1        0.0274
     31 H           0.2631    3.7339    0.1698 H       1  UNL1        0.0534
     32 H          -1.4940    3.1898    0.0009 H       1  UNL1        0.0534
     33 H           4.0989    0.9870   -1.0135 H       1  UNL1        0.0572
     34 H           5.8413   -1.9276   -0.3860 H       1  UNL1        0.0274
     35 H           6.0491   -0.1712   -0.3893 H       1  UNL1        0.0274
     36 H           5.8294   -1.0249    1.1437 H       1  UNL1        0.0274
     37 H           2.1780   -1.7822    0.7008 H       1  UNL1        0.0274
     38 H           3.6044   -2.1454    1.6586 H       1  UNL1        0.0274
     39 H           3.3917   -2.9016    0.0640 H       1  UNL1        0.0274
@<TRIPOS>BOND
     1     1     2    1
     2     1     3    1
     3     1     5    1
     4     1    16    1
     5     2     4    1
     6     2    17    1
     7     2    18    1
     8     3     7    1
     9     3    19    1
    10     3    20    1
    11     4     6    1
    12     4    21    1
    13     4    22    1
    14     5     8    1
    15     5    11    2
    16     6     7    2
    17     6    10    1
    18     7    23    1
    19     8     9    1
    20     8    24    1
    21     8    25    1
    22     9    12    1
    23     9    26    1
    24     9    27    1
    25    10    28    1
    26    10    29    1
    27    10    30    1
    28    11    31    1
    29    11    32    1
    30    12    13    2
    31    12    33    1
    32    13    14    1
    33    13    15    1
    34    14    34    1
    35    14    35    1
    36    14    36    1
    37    15    37    1
    38    15    38    1
    39    15    39    1
