@<TRIPOS>MOLECULE
6616
 26 27 0 0 0
SMALL
GASTEIGER

@<TRIPOS>ATOM
      1 C           0.4719   -1.1363    0.4227 C.3     1  UNL1       -0.0316
      2 C          -0.8810   -0.4910   -0.0273 C.3     1  UNL1       -0.0110
      3 C           0.9949    1.0355    0.3967 C.3     1  UNL1       -0.0193
      4 C           1.0210   -0.1002    1.4169 C.3     1  UNL1       -0.0429
      5 C           1.5562   -1.0450   -0.6752 C.3     1  UNL1       -0.0489
      6 C           1.8605    0.4634   -0.7379 C.3     1  UNL1       -0.0462
      7 C          -0.4549    0.9746   -0.0495 C.2     1  UNL1       -0.0676
      8 C          -1.3687   -0.9863   -1.3958 C.3     1  UNL1       -0.0558
      9 C          -1.9875   -0.7518    1.0113 C.3     1  UNL1       -0.0558
     10 C          -1.2101    2.0338   -0.3610 C.2     1  UNL1       -0.0987
     11 H           0.3643   -2.1445    0.8310 H       1  UNL1        0.0309
     12 H           1.3209    2.0082    0.7702 H       1  UNL1        0.0346
     13 H           2.0322   -0.3366    1.7671 H       1  UNL1        0.0274
     14 H           0.3818    0.0741    2.2874 H       1  UNL1        0.0274
     15 H           1.2504   -1.4544   -1.6407 H       1  UNL1        0.0268
     16 H           2.4558   -1.5894   -0.3632 H       1  UNL1        0.0268
     17 H           2.9250    0.6398   -0.5475 H       1  UNL1        0.0271
     18 H           1.6124    0.8893   -1.7162 H       1  UNL1        0.0271
     19 H          -0.7244   -0.6548   -2.2168 H       1  UNL1        0.0238
     20 H          -1.4148   -2.0806   -1.4187 H       1  UNL1        0.0238
     21 H          -2.3732   -0.6076   -1.6194 H       1  UNL1        0.0238
     22 H          -1.7427   -0.3555    2.0017 H       1  UNL1        0.0238
     23 H          -2.9337   -0.2880    0.7087 H       1  UNL1        0.0238
     24 H          -2.1668   -1.8273    1.1208 H       1  UNL1        0.0238
     25 H          -2.2478    1.9188   -0.6574 H       1  UNL1        0.0535
     26 H          -0.8052    3.0405   -0.3281 H       1  UNL1        0.0535
@<TRIPOS>BOND
     1     1     2    1
     2     1     4    1
     3     1     5    1
     4     1    11    1
     5     2     7    1
     6     2     8    1
     7     2     9    1
     8     3     4    1
     9     3     6    1
    10     3     7    1
    11     3    12    1
    12     4    13    1
    13     4    14    1
    14     5     6    1
    15     5    15    1
    16     5    16    1
    17     6    17    1
    18     6    18    1
    19     7    10    2
    20     8    19    1
    21     8    20    1
    22     8    21    1
    23     9    22    1
    24     9    23    1
    25     9    24    1
    26    10    25    1
    27    10    26    1
