@<TRIPOS>MOLECULE
10208
 29 31 0 0 0
SMALL
GASTEIGER

@<TRIPOS>ATOM
      1 O           2.0215   -2.7761    0.0063 O.3     1  UNL1       -0.5060
      2 O          -0.6000   -2.4146    0.0006 O.2     1  UNL1       -0.2864
      3 O           0.0528    2.8782    0.0074 O.2     1  UNL1       -0.2866
      4 O          -3.1204   -2.2183    0.0001 O.3     1  UNL1       -0.5060
      5 C           1.1026    0.7758    0.0000 C.ar    1  UNL1        0.0368
      6 C           0.9590   -0.6138   -0.0003 C.ar    1  UNL1        0.0745
      7 C          -1.5852   -0.3231    0.0017 C.ar    1  UNL1        0.0745
      8 C          -1.4318    1.0612    0.0023 C.ar    1  UNL1        0.0366
      9 C          -0.4003   -1.2029    0.0014 C.2     1  UNL1        0.2015
     10 C          -0.0831    1.6608    0.0034 C.2     1  UNL1        0.1947
     11 C           2.3815    1.3576   -0.0036 C.ar    1  UNL1       -0.0471
     12 C           2.1117   -1.4135    0.0007 C.ar    1  UNL1        0.1286
     13 C           3.5276    0.5547   -0.0205 C.ar    1  UNL1       -0.0463
     14 C          -2.8778   -0.8698    0.0009 C.ar    1  UNL1        0.1283
     15 C           3.3830   -0.8354   -0.0031 C.ar    1  UNL1       -0.0165
     16 C          -2.5608    1.8939    0.0018 C.ar    1  UNL1       -0.0500
     17 C          -3.9999   -0.0458    0.0008 C.ar    1  UNL1       -0.0194
     18 C          -3.8424    1.3386    0.0015 C.ar    1  UNL1       -0.0576
     19 C           4.8962    1.1683    0.0019 C.3     1  UNL1       -0.0396
     20 H           2.4818    2.4433    0.0040 H       1  UNL1        0.0627
     21 H           4.2710   -1.4631    0.0047 H       1  UNL1        0.0657
     22 H          -2.4475    2.9772    0.0013 H       1  UNL1        0.0625
     23 H          -4.9937   -0.4873    0.0005 H       1  UNL1        0.0654
     24 H          -4.7182    1.9830    0.0005 H       1  UNL1        0.0619
     25 H           4.9029    2.1279   -0.5244 H       1  UNL1        0.0278
     26 H           5.2199    1.3231    1.0355 H       1  UNL1        0.0278
     27 H           5.6200    0.5173   -0.5006 H       1  UNL1        0.0278
     28 H           2.9041   -3.1788   -0.0017 H       1  UNL1        0.2922
     29 H          -2.2492   -2.6811    0.0002 H       1  UNL1        0.2922
@<TRIPOS>BOND
     1     1    12    1
     2     1    28    1
     3     2     9    2
     4     3    10    2
     5     4    14    1
     6     4    29    1
     7     5     6   ar
     8     5    10    1
     9     5    11   ar
    10     6     9    1
    11     6    12   ar
    12     7     8   ar
    13     7     9    1
    14     7    14   ar
    15     8    10    1
    16     8    16   ar
    17    11    13   ar
    18    11    20    1
    19    12    15   ar
    20    13    15   ar
    21    13    19    1
    22    14    17   ar
    23    15    21    1
    24    16    18   ar
    25    16    22    1
    26    17    18   ar
    27    17    23    1
    28    18    24    1
    29    19    25    1
    30    19    26    1
    31    19    27    1
