@<TRIPOS>MOLECULE
985
 50 49 0 0 0
SMALL
GASTEIGER

@<TRIPOS>ATOM
      1 O          -9.5103    0.6791   -0.0856 O.3     1  UNL1       -0.4806
      2 O          -8.5661   -1.3404    0.0075 O.2     1  UNL1       -0.2510
      3 C           1.7594   -0.4266    0.0564 C.3     1  UNL1       -0.0531
      4 C           0.5022    0.4611    0.0764 C.3     1  UNL1       -0.0531
      5 C           3.0561    0.3994    0.0895 C.3     1  UNL1       -0.0531
      6 C          -0.7941   -0.3674    0.0393 C.3     1  UNL1       -0.0531
      7 C           4.3150   -0.4834    0.0235 C.3     1  UNL1       -0.0531
      8 C          -2.0551    0.5120   -0.0110 C.3     1  UNL1       -0.0531
      9 C           5.6054    0.3503    0.0848 C.3     1  UNL1       -0.0531
     10 C          -3.3494   -0.3206   -0.0085 C.3     1  UNL1       -0.0530
     11 C           6.8731   -0.5031   -0.0479 C.3     1  UNL1       -0.0531
     12 C          -4.6042    0.5684   -0.0009 C.3     1  UNL1       -0.0526
     13 C           8.1480    0.3573   -0.0314 C.3     1  UNL1       -0.0533
     14 C          -5.9041   -0.2490   -0.0246 C.3     1  UNL1       -0.0430
     15 C           9.4209   -0.4928   -0.0926 C.3     1  UNL1       -0.0559
     16 C          -7.1428    0.6542   -0.0223 C.3     1  UNL1        0.0448
     17 C          10.6845    0.3593   -0.0542 C.3     1  UNL1       -0.0653
     18 C          -8.4317   -0.1299   -0.0326 C.2     1  UNL1        0.3047
     19 H           1.7401   -1.1060    0.9171 H       1  UNL1        0.0265
     20 H           1.7488   -1.0488   -0.8466 H       1  UNL1        0.0265
     21 H           0.5104    1.0825    0.9802 H       1  UNL1        0.0265
     22 H           0.5260    1.1416   -0.7832 H       1  UNL1        0.0265
     23 H           3.0622    1.0987   -0.7556 H       1  UNL1        0.0265
     24 H           3.0797    1.0015    1.0059 H       1  UNL1        0.0265
     25 H          -0.8350   -1.0097    0.9272 H       1  UNL1        0.0265
     26 H          -0.7797   -1.0267   -0.8368 H       1  UNL1        0.0265
     27 H           4.3040   -1.1997    0.8542 H       1  UNL1        0.0265
     28 H           4.2996   -1.0657   -0.9057 H       1  UNL1        0.0265
     29 H          -2.0286    1.1332   -0.9147 H       1  UNL1        0.0265
     30 H          -2.0594    1.1931    0.8484 H       1  UNL1        0.0265
     31 H           5.5906    1.1009   -0.7154 H       1  UNL1        0.0265
     32 H           5.6372    0.8944    1.0367 H       1  UNL1        0.0265
     33 H          -3.3630   -0.9743    0.8720 H       1  UNL1        0.0265
     34 H          -3.3673   -0.9693   -0.8927 H       1  UNL1        0.0265
     35 H           6.9143   -1.2317    0.7723 H       1  UNL1        0.0265
     36 H           6.8388   -1.0764   -0.9841 H       1  UNL1        0.0265
     37 H          -4.5809    1.2388   -0.8672 H       1  UNL1        0.0265
     38 H          -4.5923    1.2000    0.8967 H       1  UNL1        0.0265
     39 H           8.1311    1.0477   -0.8834 H       1  UNL1        0.0265
     40 H           8.1640    0.9691    0.8788 H       1  UNL1        0.0265
     41 H          -5.9369   -0.9177    0.8441 H       1  UNL1        0.0270
     42 H          -5.9225   -0.8889   -0.9155 H       1  UNL1        0.0270
     43 H           9.4260   -1.0920   -1.0104 H       1  UNL1        0.0263
     44 H           9.4427   -1.1915    0.7515 H       1  UNL1        0.0263
     45 H          -7.1414    1.2857    0.8732 H       1  UNL1        0.0377
     46 H          -7.1326    1.2956   -0.9108 H       1  UNL1        0.0377
     47 H          10.7250    1.0474   -0.9046 H       1  UNL1        0.0230
     48 H          11.5734   -0.2790   -0.0955 H       1  UNL1        0.0230
     49 H          10.7370    0.9478    0.8675 H       1  UNL1        0.0230
     50 H         -10.2767    0.0690   -0.0851 H       1  UNL1        0.2951
@<TRIPOS>BOND
     1     1    18    1
     2     1    50    1
     3     2    18    2
     4     3     4    1
     5     3     5    1
     6     3    19    1
     7     3    20    1
     8     4     6    1
     9     4    21    1
    10     4    22    1
    11     5     7    1
    12     5    23    1
    13     5    24    1
    14     6     8    1
    15     6    25    1
    16     6    26    1
    17     7     9    1
    18     7    27    1
    19     7    28    1
    20     8    10    1
    21     8    29    1
    22     8    30    1
    23     9    11    1
    24     9    31    1
    25     9    32    1
    26    10    12    1
    27    10    33    1
    28    10    34    1
    29    11    13    1
    30    11    35    1
    31    11    36    1
    32    12    14    1
    33    12    37    1
    34    12    38    1
    35    13    15    1
    36    13    39    1
    37    13    40    1
    38    14    16    1
    39    14    41    1
    40    14    42    1
    41    15    17    1
    42    15    43    1
    43    15    44    1
    44    16    18    1
    45    16    45    1
    46    16    46    1
    47    17    47    1
    48    17    48    1
    49    17    49    1
