@<TRIPOS>MOLECULE
5311264
 41 40 0 0 0
SMALL
GASTEIGER

@<TRIPOS>ATOM
      1 P           1.1144    2.6268   -0.4556 P.3     1  UNL1        0.2128
      2 O           1.3846    1.1444   -1.0760 O.3     1  UNL1       -0.3221
      3 O           0.1261    2.1891    0.7575 O.3     1  UNL1       -0.3247
      4 O          -0.7170   -0.3951    1.5515 O.3     1  UNL1       -0.3861
      5 O          -2.8944   -0.5826   -0.1148 O.3     1  UNL1       -0.4621
      6 O           2.4138    3.1019    0.1319 O.co2   1  UNL1       -0.4373
      7 O           0.3181    3.3985   -1.4695 O.2     1  UNL1       -0.5172
      8 O          -5.1180   -1.1312    0.0293 O.2     1  UNL1       -0.2512
      9 N           2.9458   -2.0926    0.0762 N.4     1  UNL1        0.2385
     10 C           2.0994   -1.0921   -0.7414 C.3     1  UNL1       -0.0064
     11 C           4.4257   -1.7876   -0.1027 C.3     1  UNL1       -0.0417
     12 C           2.6580   -3.4955   -0.4343 C.3     1  UNL1       -0.0417
     13 C           2.5693   -2.0163    1.5540 C.3     1  UNL1       -0.0417
     14 C           2.2730    0.3562   -0.3139 C.3     1  UNL1        0.0947
     15 C          -1.6366    0.7222    1.4636 C.3     1  UNL1        0.1128
     16 C          -1.1537    1.7021    0.3868 C.3     1  UNL1        0.0840
     17 C          -3.0177    0.1539    1.1228 C.3     1  UNL1        0.1204
     18 C          -4.0441   -1.1578   -0.5540 C.2     1  UNL1        0.3040
     19 C          -3.7956   -1.8553   -1.8568 C.3     1  UNL1        0.0332
     20 H           1.0508   -1.4003   -0.6458 H       1  UNL1        0.0838
     21 H           2.3728   -1.2169   -1.7971 H       1  UNL1        0.0838
     22 H           5.0018   -2.5922    0.3634 H       1  UNL1        0.0778
     23 H           4.6576   -0.8371    0.3844 H       1  UNL1        0.0778
     24 H           4.6408   -1.7366   -1.1742 H       1  UNL1        0.0778
     25 H           2.9261   -3.5446   -1.4938 H       1  UNL1        0.0778
     26 H           3.2609   -4.2049    0.1413 H       1  UNL1        0.0778
     27 H           1.5933   -3.7065   -0.2962 H       1  UNL1        0.0778
     28 H           2.9194   -1.0670    1.9662 H       1  UNL1        0.0778
     29 H           1.4833   -2.1068    1.6390 H       1  UNL1        0.0778
     30 H           3.0617   -2.8430    2.0746 H       1  UNL1        0.0778
     31 H           3.2934    0.7023   -0.5024 H       1  UNL1        0.0618
     32 H           2.0454    0.4755    0.7475 H       1  UNL1        0.0618
     33 H          -1.6488    1.2125    2.4427 H       1  UNL1        0.0650
     34 H          -1.0866    1.1918   -0.5798 H       1  UNL1        0.0591
     35 H          -1.8403    2.5490    0.2892 H       1  UNL1        0.0591
     36 H          -3.3294   -0.5456    1.9075 H       1  UNL1        0.0724
     37 H          -3.7586    0.9534    1.0131 H       1  UNL1        0.0724
     38 H          -0.8154   -0.8382    0.6916 H       1  UNL1        0.2100
     39 H          -3.4719   -1.1308   -2.6084 H       1  UNL1        0.0342
     40 H          -4.7202   -2.3267   -2.2002 H       1  UNL1        0.0342
     41 H          -3.0382   -2.6316   -1.7211 H       1  UNL1        0.0342
@<TRIPOS>UNITY_ATOM_ATTR
6 1
charge -1
9 1
charge 1
@<TRIPOS>BOND
     1     1     2    1
     2     1     3    1
     3     1     6    1
     4     1     7    2
     5     2    14    1
     6     3    16    1
     7     4    15    1
     8     4    38    1
     9     5    17    1
    10     5    18    1
    11     8    18    2
    12     9    10    1
    13     9    11    1
    14     9    12    1
    15     9    13    1
    16    10    14    1
    17    10    20    1
    18    10    21    1
    19    11    22    1
    20    11    23    1
    21    11    24    1
    22    12    25    1
    23    12    26    1
    24    12    27    1
    25    13    28    1
    26    13    29    1
    27    13    30    1
    28    14    31    1
    29    14    32    1
    30    15    16    1
    31    15    17    1
    32    15    33    1
    33    16    34    1
    34    16    35    1
    35    17    36    1
    36    17    37    1
    37    18    19    1
    38    19    39    1
    39    19    40    1
    40    19    41    1
