@<TRIPOS>MOLECULE
8468
 20 20 0 0 0
SMALL
GASTEIGER

@<TRIPOS>ATOM
      1 O           2.1915   -1.3080   -0.4933 O.3     1  UNL1       -0.4914
      2 O           2.8136    1.3709   -0.0762 O.3     1  UNL1       -0.5033
      3 O          -3.4420    0.5748    0.2053 O.3     1  UNL1       -0.4771
      4 O          -2.8871   -1.5651   -0.1101 O.2     1  UNL1       -0.2451
      5 C           1.2104   -0.3926   -0.2164 C.ar    1  UNL1        0.1620
      6 C          -1.1459    0.0946   -0.0003 C.ar    1  UNL1        0.0625
      7 C          -0.1142   -0.8279   -0.2076 C.ar    1  UNL1       -0.0023
      8 C           1.5105    0.9620   -0.0461 C.ar    1  UNL1        0.1585
      9 C          -0.8416    1.4524    0.1776 C.ar    1  UNL1       -0.0441
     10 C           0.4874    1.8866    0.1533 C.ar    1  UNL1       -0.0157
     11 C          -2.5411   -0.4054    0.0187 C.2     1  UNL1        0.3369
     12 C           2.7474   -1.8189    0.7168 C.3     1  UNL1        0.0790
     13 H          -0.3362   -1.8801   -0.3676 H       1  UNL1        0.0663
     14 H          -1.6348    2.1812    0.3301 H       1  UNL1        0.0627
     15 H           0.7006    2.9432    0.2864 H       1  UNL1        0.0655
     16 H           1.9980   -2.3856    1.2803 H       1  UNL1        0.0660
     17 H           3.1709   -1.0235    1.3393 H       1  UNL1        0.0660
     18 H           3.5566   -2.5051    0.4485 H       1  UNL1        0.0660
     19 H           2.8429    2.3394   -0.0295 H       1  UNL1        0.2923
     20 H          -4.3032    0.1051    0.1953 H       1  UNL1        0.2954
@<TRIPOS>BOND
     1     1     5    1
     2     1    12    1
     3     2     8    1
     4     2    19    1
     5     3    11    1
     6     3    20    1
     7     4    11    2
     8     5     7   ar
     9     5     8   ar
    10     6     7   ar
    11     6     9   ar
    12     6    11    1
    13     7    13    1
    14     8    10   ar
    15     9    10   ar
    16     9    14    1
    17    10    15    1
    18    12    16    1
    19    12    17    1
    20    12    18    1
