@<TRIPOS>MOLECULE
443639
 34 36 0 0 0
SMALL
GASTEIGER

@<TRIPOS>ATOM
      1 O           0.2002    0.7338   -0.1510 O.3     1  UNL1       -0.4811
      2 O          -0.3135   -1.5421    1.6719 O.3     1  UNL1       -0.3875
      3 O           4.1094   -2.0899   -0.0724 O.3     1  UNL1       -0.5063
      4 O           4.5327    2.6421   -0.0425 O.3     1  UNL1       -0.5065
      5 O          -6.1013    0.7338    0.1946 O.3     1  UNL1       -0.5068
      6 C          -0.1765   -1.6813    0.2484 C.3     1  UNL1        0.1004
      7 C          -0.5838   -0.4108   -0.5236 C.3     1  UNL1        0.1512
      8 C           1.2822   -1.9993   -0.0737 C.3     1  UNL1        0.0092
      9 C           2.1352   -0.7580   -0.0792 C.ar    1  UNL1        0.0384
     10 C           1.5508    0.5143   -0.1152 C.ar    1  UNL1        0.1317
     11 C          -2.0561   -0.0844   -0.3244 C.ar    1  UNL1       -0.0046
     12 C           3.5314   -0.8498   -0.0663 C.ar    1  UNL1        0.1270
     13 C           2.3429    1.6640   -0.0893 C.ar    1  UNL1        0.0221
     14 C          -3.0211   -0.6257   -1.1892 C.ar    1  UNL1       -0.0515
     15 C          -2.4813    0.7328    0.7365 C.ar    1  UNL1       -0.0515
     16 C           4.3326    0.2910   -0.0519 C.ar    1  UNL1        0.0218
     17 C           3.7260    1.5425   -0.0586 C.ar    1  UNL1        0.1238
     18 C          -4.3752   -0.3412   -1.0037 C.ar    1  UNL1       -0.0198
     19 C          -3.8341    1.0158    0.9226 C.ar    1  UNL1       -0.0198
     20 C          -4.7703    0.4770    0.0479 C.ar    1  UNL1        0.1169
     21 H          -0.8015   -2.5346   -0.0398 H       1  UNL1        0.0637
     22 H          -0.4246   -0.5647   -1.6015 H       1  UNL1        0.0811
     23 H           1.3428   -2.4525   -1.0705 H       1  UNL1        0.0342
     24 H           1.6697   -2.7144    0.6615 H       1  UNL1        0.0342
     25 H           1.8617    2.6372   -0.0976 H       1  UNL1        0.0691
     26 H          -1.2638   -1.4530    1.8614 H       1  UNL1        0.2100
     27 H          -2.7268   -1.2662   -2.0175 H       1  UNL1        0.0623
     28 H          -1.7512    1.1576    1.4243 H       1  UNL1        0.0623
     29 H           5.4138    0.2260   -0.0329 H       1  UNL1        0.0691
     30 H          -5.1192   -0.7539   -1.6797 H       1  UNL1        0.0654
     31 H          -4.1331    1.6561    1.7466 H       1  UNL1        0.0654
     32 H           5.0738   -1.9816   -0.0277 H       1  UNL1        0.2921
     33 H           3.9703    3.4347   -0.0460 H       1  UNL1        0.2921
     34 H          -6.2162    1.3236    0.9579 H       1  UNL1        0.2921
@<TRIPOS>BOND
     1     1     7    1
     2     1    10    1
     3     2     6    1
     4     2    26    1
     5     3    12    1
     6     3    32    1
     7     4    17    1
     8     4    33    1
     9     5    20    1
    10     5    34    1
    11     6     7    1
    12     6     8    1
    13     6    21    1
    14     7    11    1
    15     7    22    1
    16     8     9    1
    17     8    23    1
    18     8    24    1
    19     9    10   ar
    20     9    12   ar
    21    10    13   ar
    22    11    14   ar
    23    11    15   ar
    24    12    16   ar
    25    13    17   ar
    26    13    25    1
    27    14    18   ar
    28    14    27    1
    29    15    19   ar
    30    15    28    1
    31    16    17   ar
    32    16    29    1
    33    18    20   ar
    34    18    30    1
    35    19    20   ar
    36    19    31    1
