@<TRIPOS>MOLECULE
5280343
 32 34 0 0 0
SMALL
GASTEIGER

@<TRIPOS>ATOM
      1 O          -0.3252   -0.8669   -0.1179 O.2     1  UNL1       -0.4507
      2 O           0.7427    2.6840   -0.0573 O.3     1  UNL1       -0.5007
      3 O          -4.4279    1.7223    0.1675 O.3     1  UNL1       -0.5058
      4 O          -2.0595    2.8121    0.0832 O.2     1  UNL1       -0.2830
      5 O          -4.5208   -3.0232    0.0017 O.3     1  UNL1       -0.5065
      6 O           4.7065   -0.5383    2.0570 O.3     1  UNL1       -0.5033
      7 O           5.9665   -0.7344   -0.4579 O.3     1  UNL1       -0.5033
      8 C          -2.3336    0.4917    0.0241 C.ar    1  UNL1        0.1092
      9 C          -1.6882   -0.7395   -0.0485 C.ar    1  UNL1        0.1465
     10 C           0.4444    0.2838   -0.1147 C.ar    1  UNL1        0.1807
     11 C           1.8843   -0.0014   -0.1904 C.ar    1  UNL1        0.0247
     12 C          -0.0369    1.5393   -0.0536 C.ar    1  UNL1        0.2082
     13 C          -1.5130    1.7129    0.0231 C.ar    1  UNL1        0.2379
     14 C          -3.7282    0.5478    0.0930 C.ar    1  UNL1        0.1348
     15 C          -2.4373   -1.9183   -0.0576 C.ar    1  UNL1        0.0231
     16 C          -3.8261   -1.8491    0.0110 C.ar    1  UNL1        0.1239
     17 C           2.6356   -0.1708    0.9809 C.ar    1  UNL1       -0.0057
     18 C          -4.4829   -0.6256    0.0857 C.ar    1  UNL1        0.0223
     19 C           2.5210   -0.0769   -1.4388 C.ar    1  UNL1       -0.0473
     20 C           4.0041   -0.4065    0.8943 C.ar    1  UNL1        0.1589
     21 C           3.8956   -0.3156   -1.5150 C.ar    1  UNL1       -0.0159
     22 C           4.6298   -0.4837   -0.3469 C.ar    1  UNL1        0.1583
     23 H          -1.9435   -2.8832   -0.1149 H       1  UNL1        0.0691
     24 H           2.1634   -0.1084    1.9579 H       1  UNL1        0.0662
     25 H          -5.5651   -0.5608    0.1406 H       1  UNL1        0.0691
     26 H           1.9499    0.0426   -2.3577 H       1  UNL1        0.0626
     27 H           4.3852   -0.3863   -2.4827 H       1  UNL1        0.0655
     28 H           1.6796    2.4350   -0.1096 H       1  UNL1        0.2924
     29 H          -3.7804    2.4647    0.1620 H       1  UNL1        0.2922
     30 H          -5.4713   -2.8259    0.0576 H       1  UNL1        0.2921
     31 H           5.6109   -0.2187    1.8961 H       1  UNL1        0.2923
     32 H           6.2174   -1.3220    0.2756 H       1  UNL1        0.2923
@<TRIPOS>BOND
     1     1     9   ar
     2     1    10   ar
     3     2    12    1
     4     2    28    1
     5     3    14    1
     6     3    29    1
     7     4    13    2
     8     5    16    1
     9     5    30    1
    10     6    20    1
    11     6    31    1
    12     7    22    1
    13     7    32    1
    14     8     9   ar
    15     8    13   ar
    16     8    14   ar
    17     9    15   ar
    18    10    11    1
    19    10    12   ar
    20    11    17   ar
    21    11    19   ar
    22    12    13   ar
    23    14    18   ar
    24    15    16   ar
    25    15    23    1
    26    16    18   ar
    27    17    20   ar
    28    17    24    1
    29    18    25    1
    30    19    21   ar
    31    19    26    1
    32    20    22   ar
    33    21    22   ar
    34    21    27    1
