@<TRIPOS>MOLECULE
7127
 27 27 0 0 0
SMALL
GASTEIGER

@<TRIPOS>ATOM
      1 O           1.8677    1.8266    0.4035 O.3     1  UNL1       -0.4914
      2 O           2.8342   -0.6712   -0.1931 O.3     1  UNL1       -0.4915
      3 C          -1.2562   -0.0856    0.5227 C.ar    1  UNL1       -0.0400
      4 C          -2.7257    0.1292    0.7892 C.3     1  UNL1       -0.0096
      5 C          -0.3499    0.9827    0.5383 C.ar    1  UNL1       -0.0128
      6 C           1.0081    0.7637    0.2769 C.ar    1  UNL1        0.1617
      7 C          -0.7840   -1.3697    0.2407 C.ar    1  UNL1       -0.0546
      8 C           1.4870   -0.5295    0.0170 C.ar    1  UNL1        0.1615
      9 C           0.5750   -1.5864   -0.0006 C.ar    1  UNL1       -0.0160
     10 C          -3.4953    0.4004   -0.4721 C.2     1  UNL1       -0.0868
     11 C           2.0411    2.4963   -0.8451 C.3     1  UNL1        0.0790
     12 C           3.2948   -1.9944   -0.4474 C.3     1  UNL1        0.0790
     13 C          -4.5233   -0.3405   -0.9059 C.2     1  UNL1       -0.1023
     14 H          -3.1273   -0.7487    1.3128 H       1  UNL1        0.0355
     15 H          -2.8544    0.9713    1.4795 H       1  UNL1        0.0355
     16 H          -0.6921    1.9885    0.7665 H       1  UNL1        0.0658
     17 H          -1.4667   -2.2156    0.2194 H       1  UNL1        0.0622
     18 H           0.8820   -2.6096   -0.1926 H       1  UNL1        0.0655
     19 H          -3.1838    1.2629   -1.0579 H       1  UNL1        0.0570
     20 H           1.0967    2.9194   -1.2043 H       1  UNL1        0.0660
     21 H           2.4759    1.8329   -1.6007 H       1  UNL1        0.0660
     22 H           2.7377    3.3251   -0.6847 H       1  UNL1        0.0660
     23 H           2.8433   -2.3970   -1.3610 H       1  UNL1        0.0660
     24 H           3.1019   -2.6508    0.4087 H       1  UNL1        0.0660
     25 H           4.3769   -1.9590   -0.6010 H       1  UNL1        0.0660
     26 H          -5.0378   -0.0880   -1.8280 H       1  UNL1        0.0532
     27 H          -4.8734   -1.2107   -0.3587 H       1  UNL1        0.0532
@<TRIPOS>BOND
     1     1     6    1
     2     1    11    1
     3     2     8    1
     4     2    12    1
     5     3     4    1
     6     3     5   ar
     7     3     7   ar
     8     4    10    1
     9     4    14    1
    10     4    15    1
    11     5     6   ar
    12     5    16    1
    13     6     8   ar
    14     7     9   ar
    15     7    17    1
    16     8     9   ar
    17     9    18    1
    18    10    13    2
    19    10    19    1
    20    11    20    1
    21    11    21    1
    22    11    22    1
    23    12    23    1
    24    12    24    1
    25    12    25    1
    26    13    26    1
    27    13    27    1
