@<TRIPOS>MOLECULE
10975
 29 28 0 0 0
SMALL
GASTEIGER

@<TRIPOS>ATOM
      1 O           2.7542   -1.0184   -0.9726 O.3     1  UNL1       -0.3891
      2 C           2.5610    0.0596   -0.0539 C.3     1  UNL1        0.0605
      3 C           1.2809   -0.2025    0.7652 C.3     1  UNL1       -0.0242
      4 C          -0.0064   -0.2556   -0.0677 C.3     1  UNL1       -0.0465
      5 C          -1.2258   -0.5102    0.8262 C.3     1  UNL1       -0.0282
      6 C           3.7755    0.1008    0.8805 C.3     1  UNL1       -0.0363
      7 C           2.4855    1.3603   -0.8580 C.3     1  UNL1       -0.0363
      8 C          -2.5169   -0.5206    0.0352 C.2     1  UNL1       -0.0550
      9 C          -3.2213    0.7184   -0.2607 C.2     1  UNL1       -0.0662
     10 C          -3.0282   -1.6894   -0.3932 C.2     1  UNL1       -0.0955
     11 C          -2.8567    1.9570    0.0990 C.2     1  UNL1       -0.0985
     12 H           1.3864   -1.1637    1.2868 H       1  UNL1        0.0293
     13 H           1.1784    0.5716    1.5345 H       1  UNL1        0.0293
     14 H           0.0711   -1.0481   -0.8229 H       1  UNL1        0.0269
     15 H          -0.1422    0.6885   -0.6049 H       1  UNL1        0.0269
     16 H          -1.0941   -1.4753    1.3333 H       1  UNL1        0.0313
     17 H          -1.2740    0.2291    1.6355 H       1  UNL1        0.0313
     18 H           3.7040    0.9241    1.5986 H       1  UNL1        0.0257
     19 H           3.8702   -0.8380    1.4389 H       1  UNL1        0.0257
     20 H           4.7048    0.2149    0.3112 H       1  UNL1        0.0257
     21 H           3.4380    1.5660   -1.3589 H       1  UNL1        0.0257
     22 H           2.2448    2.2164   -0.2178 H       1  UNL1        0.0257
     23 H           1.7397    1.2986   -1.6572 H       1  UNL1        0.0257
     24 H           2.8141   -1.8424   -0.4563 H       1  UNL1        0.2101
     25 H          -4.1378    0.6249   -0.8425 H       1  UNL1        0.0614
     26 H          -2.5232   -2.6299   -0.1962 H       1  UNL1        0.0537
     27 H          -3.9472   -1.7436   -0.9678 H       1  UNL1        0.0537
     28 H          -3.4675    2.8063   -0.1913 H       1  UNL1        0.0535
     29 H          -1.9645    2.1702    0.6746 H       1  UNL1        0.0535
@<TRIPOS>BOND
     1     1     2    1
     2     1    24    1
     3     2     3    1
     4     2     6    1
     5     2     7    1
     6     3     4    1
     7     3    12    1
     8     3    13    1
     9     4     5    1
    10     4    14    1
    11     4    15    1
    12     5     8    1
    13     5    16    1
    14     5    17    1
    15     6    18    1
    16     6    19    1
    17     6    20    1
    18     7    21    1
    19     7    22    1
    20     7    23    1
    21     8     9    1
    22     8    10    2
    23     9    11    2
    24     9    25    1
    25    10    26    1
    26    10    27    1
    27    11    28    1
    28    11    29    1
