@<TRIPOS>MOLECULE
5570
 17 17 0 0 0
SMALL
GASTEIGER

@<TRIPOS>ATOM
      1 O           2.2189    1.5505    0.0017 O.co2   1  UNL1       -0.5444
      2 O           2.8900   -0.6215    0.0008 O.co2   1  UNL1       -0.5444
      3 N          -1.7030    0.5209   -0.0071 N.ar    1  UNL1       -0.2059
      4 C          -0.3944    0.8566   -0.0002 C.ar    1  UNL1        0.1798
      5 C           0.5902   -0.1222    0.0001 C.ar    1  UNL1        0.0609
      6 C          -2.0842   -0.7753    0.0006 C.ar    1  UNL1        0.1710
      7 C           0.2036   -1.4639   -0.0006 C.ar    1  UNL1       -0.0416
      8 C          -2.7131    1.5840    0.0008 C.3     1  UNL1        0.1404
      9 C          -1.1430   -1.7942    0.0017 C.ar    1  UNL1        0.0027
     10 C           2.0263    0.2980    0.0010 C.2     1  UNL1        0.0773
     11 H          -0.1446    1.9166    0.0073 H       1  UNL1        0.1383
     12 H          -3.1486   -0.9865    0.0074 H       1  UNL1        0.1376
     13 H           0.9690   -2.2409   -0.0000 H       1  UNL1        0.0628
     14 H          -2.3534    2.4283   -0.5927 H       1  UNL1        0.0993
     15 H          -3.6388    1.2045   -0.4405 H       1  UNL1        0.0993
     16 H          -2.8769    1.8759    1.0410 H       1  UNL1        0.0993
     17 H          -1.4471   -2.8369    0.0056 H       1  UNL1        0.0677
@<TRIPOS>UNITY_ATOM_ATTR
1 1
charge -1
3 1
charge 1
@<TRIPOS>BOND
     1     1    10   ar
     2     2    10   ar
     3     3     4   ar
     4     3     6   ar
     5     3     8    1
     6     4     5   ar
     7     4    11    1
     8     5     7   ar
     9     5    10    1
    10     6     9   ar
    11     6    12    1
    12     7     9   ar
    13     7    13    1
    14     8    14    1
    15     8    15    1
    16     8    16    1
    17     9    17    1
