@<TRIPOS>MOLECULE
12309055
 101 105 0 0 0
SMALL
GASTEIGER

@<TRIPOS>ATOM
      1 O          -4.4634   -0.0431   -0.3930 O.3     1  UNL1       -0.3451
      2 O          -6.5531    0.9760   -0.0182 O.3     1  UNL1       -0.3405
      3 O          -3.9593    1.7869   -2.5279 O.3     1  UNL1       -0.3841
      4 O          -4.4152    4.3366   -1.1356 O.3     1  UNL1       -0.3864
      5 O          -5.1815    4.0075    1.6075 O.3     1  UNL1       -0.3865
      6 O          -7.6538    0.6468    2.5202 O.3     1  UNL1       -0.3924
      7 C           2.3058   -1.0956   -0.1091 C.3     1  UNL1       -0.0259
      8 C           1.8541   -2.4690    0.4516 C.3     1  UNL1       -0.0320
      9 C           0.3490   -2.6983    0.6055 C.3     1  UNL1       -0.0307
     10 C          -0.3572   -2.4097   -0.7547 C.3     1  UNL1       -0.0285
     11 C           3.8364   -1.3791   -0.1714 C.3     1  UNL1       -0.0328
     12 C           1.6032   -0.9064   -1.4612 C.3     1  UNL1       -0.0468
     13 C          -1.9178   -2.6535   -0.6747 C.3     1  UNL1       -0.0078
     14 C           2.7836   -2.7143    1.6350 C.3     1  UNL1       -0.0492
     15 C           0.0774   -1.0523   -1.3492 C.3     1  UNL1       -0.0486
     16 C           4.1195   -2.1065    1.1727 C.3     1  UNL1       -0.0492
     17 C          -0.2948   -1.9977    1.8054 C.3     1  UNL1       -0.0311
     18 C           4.7901   -0.1840   -0.4299 C.3     1  UNL1       -0.0405
     19 C           2.0303    0.1395    0.7822 C.3     1  UNL1       -0.0590
     20 C          -2.5243   -2.1962    0.6502 C.2     1  UNL1       -0.0648
     21 C          -2.6532   -1.9515   -1.8520 C.3     1  UNL1       -0.0413
     22 C          -1.7797   -1.8963    1.7296 C.2     1  UNL1       -0.0839
     23 C          -2.1529   -4.1852   -0.7814 C.3     1  UNL1       -0.0556
     24 C          -4.0351   -2.1333    0.7439 C.3     1  UNL1       -0.0047
     25 C          -4.1806   -2.0234   -1.7773 C.3     1  UNL1       -0.0254
     26 C           6.2546   -0.6793   -0.4414 C.3     1  UNL1       -0.0499
     27 C          -4.7044   -1.4553   -0.4528 C.3     1  UNL1        0.0655
     28 C           4.4175    0.5225   -1.7367 C.3     1  UNL1       -0.0621
     29 C           7.3186    0.3853   -0.7457 C.3     1  UNL1       -0.0497
     30 C           7.4088    1.5720    0.2474 C.3     1  UNL1       -0.0389
     31 C          -5.5274    0.7076   -0.9601 C.3     1  UNL1        0.1882
     32 C           8.4228    2.6610   -0.2311 C.3     1  UNL1       -0.0439
     33 C           7.7081    1.0526    1.6764 C.3     1  UNL1       -0.0528
     34 C          -5.0277    2.0113   -1.6017 C.3     1  UNL1        0.1341
     35 C           8.0581    3.2298   -1.6089 C.3     1  UNL1       -0.0624
     36 C           9.8812    2.1924   -0.2425 C.3     1  UNL1       -0.0624
     37 C          -4.6085    3.0300   -0.5442 C.3     1  UNL1        0.1141
     38 C           7.7789    2.1368    2.7418 C.3     1  UNL1       -0.0650
     39 C          -6.1166    1.8126    1.0712 C.3     1  UNL1        0.1130
     40 C          -5.6744    3.1810    0.5499 C.3     1  UNL1        0.1119
     41 C          -7.2936    1.9459    2.0389 C.3     1  UNL1        0.0730
     42 H           2.1531   -3.2276   -0.2957 H       1  UNL1        0.0309
     43 H           0.2303   -3.7751    0.7971 H       1  UNL1        0.0309
     44 H           0.0357   -3.1503   -1.4694 H       1  UNL1        0.0312
     45 H           4.0126   -2.1139   -0.9731 H       1  UNL1        0.0309
     46 H           1.9840   -1.6356   -2.1897 H       1  UNL1        0.0271
     47 H           1.7984    0.0792   -1.8875 H       1  UNL1        0.0271
     48 H           2.4376   -2.2132    2.5447 H       1  UNL1        0.0268
     49 H           2.8864   -3.7807    1.8602 H       1  UNL1        0.0268
     50 H          -0.3041   -0.9458   -2.3700 H       1  UNL1        0.0268
     51 H          -0.3404   -0.2245   -0.7680 H       1  UNL1        0.0268
     52 H           4.8732   -2.8909    1.0352 H       1  UNL1        0.0268
     53 H           4.4974   -1.4194    1.9379 H       1  UNL1        0.0268
     54 H          -0.0395   -2.5623    2.7119 H       1  UNL1        0.0310
     55 H           0.0873   -0.9937    1.9721 H       1  UNL1        0.0310
     56 H           4.6846    0.5326    0.3900 H       1  UNL1        0.0301
     57 H           0.9738    0.3933    0.8420 H       1  UNL1        0.0235
     58 H           2.5047    1.0410    0.3820 H       1  UNL1        0.0235
     59 H           2.4063    0.0109    1.8037 H       1  UNL1        0.0235
     60 H          -2.3217   -2.3794   -2.8076 H       1  UNL1        0.0274
     61 H          -2.3973   -0.8858   -1.8811 H       1  UNL1        0.0274
     62 H          -2.2726   -1.5694    2.6434 H       1  UNL1        0.0572
     63 H          -1.7581   -4.5726   -1.7270 H       1  UNL1        0.0238
     64 H          -3.2118   -4.4531   -0.7424 H       1  UNL1        0.0238
     65 H          -1.6581   -4.7295    0.0302 H       1  UNL1        0.0238
     66 H          -4.4140   -3.1599    0.8241 H       1  UNL1        0.0335
     67 H          -4.3427   -1.6106    1.6579 H       1  UNL1        0.0335
     68 H          -4.5195   -3.0569   -1.9014 H       1  UNL1        0.0290
     69 H          -4.5870   -1.4563   -2.6231 H       1  UNL1        0.0290
     70 H           6.4982   -1.1566    0.5121 H       1  UNL1        0.0268
     71 H           6.3491   -1.4678   -1.1953 H       1  UNL1        0.0268
     72 H          -5.7828   -1.6413   -0.3758 H       1  UNL1        0.0600
     73 H           3.5067    1.1114   -1.6220 H       1  UNL1        0.0233
     74 H           4.2675   -0.1969   -2.5523 H       1  UNL1        0.0233
     75 H           5.1655    1.2472   -2.0630 H       1  UNL1        0.0233
     76 H           7.1493    0.7521   -1.7638 H       1  UNL1        0.0268
     77 H           8.2829   -0.1290   -0.7816 H       1  UNL1        0.0268
     78 H           6.4268    2.0627    0.2837 H       1  UNL1        0.0303
     79 H          -5.9873    0.1204   -1.7699 H       1  UNL1        0.0937
     80 H           8.3570    3.5049    0.4672 H       1  UNL1        0.0298
     81 H           8.6397    0.4738    1.6840 H       1  UNL1        0.0265
     82 H           6.9158    0.3629    1.9848 H       1  UNL1        0.0265
     83 H          -5.8532    2.4460   -2.1860 H       1  UNL1        0.0671
     84 H           7.0001    3.5069   -1.6520 H       1  UNL1        0.0232
     85 H           8.2642    2.5185   -2.4149 H       1  UNL1        0.0232
     86 H           8.6467    4.1305   -1.8166 H       1  UNL1        0.0232
     87 H          10.5424    3.0074   -0.5573 H       1  UNL1        0.0232
     88 H          10.0356    1.3583   -0.9338 H       1  UNL1        0.0232
     89 H          10.2116    1.8787    0.7518 H       1  UNL1        0.0232
     90 H          -3.6378    2.7558   -0.1078 H       1  UNL1        0.0648
     91 H           6.8771    2.7564    2.7295 H       1  UNL1        0.0230
     92 H           8.6515    2.7819    2.6107 H       1  UNL1        0.0230
     93 H           7.8584    1.6776    3.7335 H       1  UNL1        0.0230
     94 H          -5.2972    1.3169    1.6094 H       1  UNL1        0.0647
     95 H          -6.5383    3.7137    0.1255 H       1  UNL1        0.0647
     96 H          -4.2322    1.0789   -3.1332 H       1  UNL1        0.2101
     97 H          -8.1705    2.3681    1.5308 H       1  UNL1        0.0584
     98 H          -7.0442    2.5671    2.9019 H       1  UNL1        0.0584
     99 H          -5.2333    4.5674   -1.6128 H       1  UNL1        0.2100
    100 H          -4.8261    4.8127    1.1804 H       1  UNL1        0.2100
    101 H          -8.4182    0.7572    3.0868 H       1  UNL1        0.2095
@<TRIPOS>BOND
     1     1    27    1
     2     1    31    1
     3     2    31    1
     4     2    39    1
     5     3    34    1
     6     3    96    1
     7     4    37    1
     8     4    99    1
     9     5    40    1
    10     5   100    1
    11     6    41    1
    12     6   101    1
    13     7     8    1
    14     7    11    1
    15     7    12    1
    16     7    19    1
    17     8     9    1
    18     8    14    1
    19     8    42    1
    20     9    10    1
    21     9    17    1
    22     9    43    1
    23    10    13    1
    24    10    15    1
    25    10    44    1
    26    11    16    1
    27    11    18    1
    28    11    45    1
    29    12    15    1
    30    12    46    1
    31    12    47    1
    32    13    20    1
    33    13    21    1
    34    13    23    1
    35    14    16    1
    36    14    48    1
    37    14    49    1
    38    15    50    1
    39    15    51    1
    40    16    52    1
    41    16    53    1
    42    17    22    1
    43    17    54    1
    44    17    55    1
    45    18    26    1
    46    18    28    1
    47    18    56    1
    48    19    57    1
    49    19    58    1
    50    19    59    1
    51    20    22    2
    52    20    24    1
    53    21    25    1
    54    21    60    1
    55    21    61    1
    56    22    62    1
    57    23    63    1
    58    23    64    1
    59    23    65    1
    60    24    27    1
    61    24    66    1
    62    24    67    1
    63    25    27    1
    64    25    68    1
    65    25    69    1
    66    26    29    1
    67    26    70    1
    68    26    71    1
    69    27    72    1
    70    28    73    1
    71    28    74    1
    72    28    75    1
    73    29    30    1
    74    29    76    1
    75    29    77    1
    76    30    32    1
    77    30    33    1
    78    30    78    1
    79    31    34    1
    80    31    79    1
    81    32    35    1
    82    32    36    1
    83    32    80    1
    84    33    38    1
    85    33    81    1
    86    33    82    1
    87    34    37    1
    88    34    83    1
    89    35    84    1
    90    35    85    1
    91    35    86    1
    92    36    87    1
    93    36    88    1
    94    36    89    1
    95    37    40    1
    96    37    90    1
    97    38    91    1
    98    38    92    1
    99    38    93    1
   100    39    40    1
   101    39    41    1
   102    39    94    1
   103    40    95    1
   104    41    97    1
   105    41    98    1
