@<TRIPOS>MOLECULE
5317319
 39 38 0 0 0
SMALL
GASTEIGER

@<TRIPOS>ATOM
      1 C           1.4144   -1.2919   -0.6000 C.3     1  UNL1       -0.0286
      2 C           0.4063   -2.3278   -0.1477 C.2     1  UNL1       -0.0762
      3 C           2.4030   -0.9124    0.5060 C.3     1  UNL1       -0.0308
      4 C          -1.3868   -0.6489    0.5396 C.3     1  UNL1       -0.0305
      5 C          -0.8221   -2.0277    0.3186 C.2     1  UNL1       -0.0847
      6 C          -2.2080   -0.1770   -0.6653 C.3     1  UNL1       -0.0248
      7 C           3.3952    0.1105    0.0197 C.2     1  UNL1       -0.0850
      8 C           0.8447   -3.7606   -0.2993 C.3     1  UNL1       -0.0438
      9 C           3.3295    1.4470    0.1771 C.2     1  UNL1       -0.0796
     10 C          -2.8309    1.1859   -0.4372 C.2     1  UNL1       -0.0547
     11 C           4.4201    2.3404   -0.3519 C.3     1  UNL1       -0.0440
     12 C           2.2001    2.1774    0.8503 C.3     1  UNL1       -0.0440
     13 C          -4.1024    1.3120    0.2591 C.2     1  UNL1       -0.0662
     14 C          -2.2211    2.2896   -0.9049 C.2     1  UNL1       -0.0955
     15 C          -4.8402    0.3155    0.7659 C.2     1  UNL1       -0.0985
     16 H           0.8999   -0.3923   -0.9600 H       1  UNL1        0.0313
     17 H           1.9566   -1.6766   -1.4741 H       1  UNL1        0.0313
     18 H           1.8699   -0.5541    1.3937 H       1  UNL1        0.0310
     19 H           2.9610   -1.7976    0.8362 H       1  UNL1        0.0310
     20 H          -0.5877    0.0690    0.7554 H       1  UNL1        0.0311
     21 H          -2.0070   -0.6780    1.4441 H       1  UNL1        0.0311
     22 H          -1.4958   -2.8396    0.5901 H       1  UNL1        0.0572
     23 H          -1.5522   -0.1350   -1.5464 H       1  UNL1        0.0316
     24 H          -2.9779   -0.9139   -0.9283 H       1  UNL1        0.0316
     25 H           4.2516   -0.3125   -0.5052 H       1  UNL1        0.0572
     26 H           0.0781   -4.4661    0.0381 H       1  UNL1        0.0274
     27 H           1.0579   -3.9814   -1.3504 H       1  UNL1        0.0274
     28 H           1.7494   -3.9486    0.2870 H       1  UNL1        0.0274
     29 H           5.2302    1.7738   -0.8230 H       1  UNL1        0.0274
     30 H           4.0158    3.0282   -1.1019 H       1  UNL1        0.0274
     31 H           4.8555    2.9292    0.4621 H       1  UNL1        0.0274
     32 H           1.3468    1.5354    1.0790 H       1  UNL1        0.0274
     33 H           1.8283    2.9774    0.2010 H       1  UNL1        0.0274
     34 H           2.5468    2.6254    1.7869 H       1  UNL1        0.0274
     35 H          -4.4912    2.3240    0.3729 H       1  UNL1        0.0614
     36 H          -1.2741    2.2289   -1.4338 H       1  UNL1        0.0537
     37 H          -2.6385    3.2828   -0.7733 H       1  UNL1        0.0537
     38 H          -5.7812    0.5329    1.2621 H       1  UNL1        0.0535
     39 H          -4.5505   -0.7270    0.7079 H       1  UNL1        0.0535
@<TRIPOS>BOND
     1     1     2    1
     2     1     3    1
     3     1    16    1
     4     1    17    1
     5     2     5    2
     6     2     8    1
     7     3     7    1
     8     3    18    1
     9     3    19    1
    10     4     5    1
    11     4     6    1
    12     4    20    1
    13     4    21    1
    14     5    22    1
    15     6    10    1
    16     6    23    1
    17     6    24    1
    18     7     9    2
    19     7    25    1
    20     8    26    1
    21     8    27    1
    22     8    28    1
    23     9    11    1
    24     9    12    1
    25    10    13    1
    26    10    14    2
    27    11    29    1
    28    11    30    1
    29    11    31    1
    30    12    32    1
    31    12    33    1
    32    12    34    1
    33    13    15    2
    34    13    35    1
    35    14    36    1
    36    14    37    1
    37    15    38    1
    38    15    39    1
