@<TRIPOS>MOLECULE
444170
 71 75 0 0 0
SMALL
GASTEIGER

@<TRIPOS>ATOM
      1 P           2.4247   -2.9679    1.6446 P.3     1  UNL1        0.4835
      2 P           2.4568   -3.1670   -1.1772 P.3     1  UNL1        0.4835
      3 O           0.7043    0.7123    3.2214 O.3     1  UNL1       -0.3456
      4 O          -1.4831   -0.9275   -3.3493 O.3     1  UNL1       -0.3597
      5 O          -2.2413    0.5002    4.0650 O.3     1  UNL1       -0.3864
      6 O          -2.3315    2.1623    1.8599 O.3     1  UNL1       -0.3847
      7 O           0.6351    0.9963   -4.4545 O.3     1  UNL1       -0.3865
      8 O          -0.4987    2.4276   -2.3556 O.3     1  UNL1       -0.3862
      9 O           1.6155   -1.9945    2.6368 O.3     1  UNL1       -0.2837
     10 O           1.7685   -2.2306   -2.2900 O.3     1  UNL1       -0.2837
     11 O           1.9321   -2.5818    0.1934 O.3     1  UNL1       -0.1861
     12 O           1.7077   -4.3786    1.9120 O.3     1  UNL1       -0.3022
     13 O           1.6733   -4.5561   -1.3245 O.3     1  UNL1       -0.3022
     14 O           3.8955   -2.9978    1.8705 O.2     1  UNL1       -0.2269
     15 O           3.9272   -3.3109   -1.3418 O.2     1  UNL1       -0.2269
     16 O          -4.9308   -2.0187    1.6125 O.2     1  UNL1       -0.2687
     17 N           0.8014    2.5693    1.7446 N.ar    1  UNL1       -0.2855
     18 N           1.6023    4.3617    0.6918 N.ar    1  UNL1       -0.2306
     19 N          -2.9790   -0.6636   -1.0313 N.ar    1  UNL1       -0.2443
     20 N           2.1716    0.8314    0.6909 N.ar    1  UNL1       -0.2159
     21 N           3.7769    1.7962   -0.8558 N.ar    1  UNL1       -0.2188
     22 N           3.8202    4.0740   -1.4258 N.pl3   1  UNL1       -0.3413
     23 N          -3.0541   -2.7819    0.5945 N.am    1  UNL1       -0.3241
     24 C          -1.5590    0.0447    2.8938 C.3     1  UNL1        0.1135
     25 C          -1.2667    1.2256    1.9763 C.3     1  UNL1        0.1285
     26 C          -0.1555   -0.4513    3.2490 C.3     1  UNL1        0.1134
     27 C          -0.0348    1.8154    2.6541 C.3     1  UNL1        0.1667
     28 C           0.5422    0.3317   -3.1886 C.3     1  UNL1        0.1121
     29 C          -0.0480   -1.0710   -3.3729 C.3     1  UNL1        0.1117
     30 C          -0.5171    1.0066   -2.3286 C.3     1  UNL1        0.1151
     31 C          -1.8001    0.4204   -2.9156 C.3     1  UNL1        0.1292
     32 C           0.3429   -1.4988    2.2461 C.3     1  UNL1        0.0879
     33 C           0.3629   -2.0579   -2.2778 C.3     1  UNL1        0.0878
     34 C          -2.9169    0.3948   -1.8878 C.ar    1  UNL1        0.0734
     35 C           1.7769    2.0994    0.8957 C.ar    1  UNL1        0.1674
     36 C           0.7278    3.9276    1.5662 C.ar    1  UNL1        0.1004
     37 C           2.2735    3.2315    0.2730 C.ar    1  UNL1        0.1473
     38 C          -3.8160    1.4628   -1.8176 C.ar    1  UNL1       -0.0377
     39 C           3.3013    3.0469   -0.6639 C.ar    1  UNL1        0.1472
     40 C          -4.8431    1.4275   -0.8790 C.ar    1  UNL1       -0.0578
     41 C          -4.0182   -0.6829   -0.1543 C.ar    1  UNL1        0.1255
     42 C          -4.9603    0.3287   -0.0367 C.ar    1  UNL1       -0.0312
     43 C           3.2193    0.7848   -0.1573 C.ar    1  UNL1        0.1205
     44 C          -4.0691   -1.8687    0.7574 C.2     1  UNL1        0.2599
     45 H          -2.1909   -0.7108    2.4264 H       1  UNL1        0.0647
     46 H          -1.0284    0.8646    0.9706 H       1  UNL1        0.0665
     47 H          -0.1019   -0.8579    4.2635 H       1  UNL1        0.0647
     48 H          -0.3091    2.4887    3.4760 H       1  UNL1        0.0866
     49 H           1.5352    0.3551   -2.7339 H       1  UNL1        0.0647
     50 H           0.2300   -1.4811   -4.3505 H       1  UNL1        0.0646
     51 H          -0.3870    0.6929   -1.2869 H       1  UNL1        0.0650
     52 H          -2.1314    0.9749   -3.8044 H       1  UNL1        0.0689
     53 H           0.4106   -1.0622    1.2464 H       1  UNL1        0.0592
     54 H          -0.3506   -2.3445    2.2111 H       1  UNL1        0.0592
     55 H          -0.1234   -3.0232   -2.4566 H       1  UNL1        0.0592
     56 H           0.0276   -1.7104   -1.2945 H       1  UNL1        0.0592
     57 H          -2.3676   -0.2611    4.6600 H       1  UNL1        0.2100
     58 H          -3.1613    1.6632    1.7658 H       1  UNL1        0.2101
     59 H           0.0093    4.5428    2.0974 H       1  UNL1        0.1030
     60 H           1.3059    0.5274   -4.9832 H       1  UNL1        0.2100
     61 H           0.4299    2.7181   -2.2894 H       1  UNL1        0.2100
     62 H          -3.7142    2.3180   -2.4848 H       1  UNL1        0.0636
     63 H          -5.5500    2.2534   -0.8087 H       1  UNL1        0.0619
     64 H          -5.7603    0.2680    0.6971 H       1  UNL1        0.0640
     65 H           3.6662   -0.1953   -0.3144 H       1  UNL1        0.1048
     66 H           0.7404   -4.3400    1.9791 H       1  UNL1        0.2220
     67 H           2.2462   -5.3026   -1.0556 H       1  UNL1        0.2220
     68 H           3.6010    5.0182   -1.1306 H       1  UNL1        0.1438
     69 H           4.6884    3.8824   -1.9058 H       1  UNL1        0.1438
     70 H          -3.1902   -3.6856    1.0279 H       1  UNL1        0.1453
     71 H          -2.5232   -2.7233   -0.2700 H       1  UNL1        0.1453
@<TRIPOS>BOND
     1     1     9    1
     2     1    11    1
     3     1    12    1
     4     1    14    2
     5     2    10    1
     6     2    11    1
     7     2    13    1
     8     2    15    2
     9     3    26    1
    10     3    27    1
    11     4    29    1
    12     4    31    1
    13     5    24    1
    14     5    57    1
    15     6    25    1
    16     6    58    1
    17     7    28    1
    18     7    60    1
    19     8    30    1
    20     8    61    1
    21     9    32    1
    22    10    33    1
    23    12    66    1
    24    13    67    1
    25    16    44    2
    26    17    27    1
    27    17    35   ar
    28    17    36   ar
    29    18    36   ar
    30    18    37   ar
    31    19    34   ar
    32    19    41   ar
    33    20    35   ar
    34    20    43   ar
    35    21    39   ar
    36    21    43   ar
    37    22    39    1
    38    22    68    1
    39    22    69    1
    40    23    44   am
    41    23    70    1
    42    23    71    1
    43    24    25    1
    44    24    26    1
    45    24    45    1
    46    25    27    1
    47    25    46    1
    48    26    32    1
    49    26    47    1
    50    27    48    1
    51    28    29    1
    52    28    30    1
    53    28    49    1
    54    29    33    1
    55    29    50    1
    56    30    31    1
    57    30    51    1
    58    31    34    1
    59    31    52    1
    60    32    53    1
    61    32    54    1
    62    33    55    1
    63    33    56    1
    64    34    38   ar
    65    35    37   ar
    66    36    59    1
    67    37    39   ar
    68    38    40   ar
    69    38    62    1
    70    40    42   ar
    71    40    63    1
    72    41    42   ar
    73    41    44    1
    74    42    64    1
    75    43    65    1
