@<TRIPOS>MOLECULE
637566
 29 28 0 0 0
SMALL
GASTEIGER

@<TRIPOS>ATOM
      1 O           4.1927   -1.7306   -0.1774 O.3     1  UNL1       -0.3910
      2 C           0.0651    0.6247    0.6266 C.3     1  UNL1       -0.0285
      3 C          -0.9270    0.7368   -0.5395 C.3     1  UNL1       -0.0308
      4 C           1.5211    0.6874    0.1892 C.2     1  UNL1       -0.0741
      5 C          -2.3586    0.7081   -0.0665 C.2     1  UNL1       -0.0850
      6 C          -3.1916   -0.3494   -0.0366 C.2     1  UNL1       -0.0796
      7 C           1.9430    1.9738   -0.4722 C.3     1  UNL1       -0.0437
      8 C           2.3716   -0.3291    0.4361 C.2     1  UNL1       -0.0600
      9 C          -4.6157   -0.1973    0.4333 C.3     1  UNL1       -0.0440
     10 C          -2.8188   -1.7507   -0.4349 C.3     1  UNL1       -0.0440
     11 C           3.8220   -0.3804    0.0597 C.3     1  UNL1        0.0626
     12 H          -0.1142    1.4356    1.3450 H       1  UNL1        0.0313
     13 H          -0.1280   -0.3088    1.1716 H       1  UNL1        0.0313
     14 H          -0.7361   -0.0457   -1.2809 H       1  UNL1        0.0310
     15 H          -0.7811    1.6869   -1.0691 H       1  UNL1        0.0310
     16 H          -2.7370    1.6759    0.2631 H       1  UNL1        0.0572
     17 H           1.5027    2.8312    0.0473 H       1  UNL1        0.0274
     18 H           1.6129    1.9898   -1.5149 H       1  UNL1        0.0274
     19 H           3.0255    2.1224   -0.4539 H       1  UNL1        0.0274
     20 H           1.9916   -1.2115    0.9493 H       1  UNL1        0.0594
     21 H          -4.7925   -0.8223    1.3146 H       1  UNL1        0.0274
     22 H          -4.8562    0.8360    0.7042 H       1  UNL1        0.0274
     23 H          -5.3102   -0.5035   -0.3558 H       1  UNL1        0.0274
     24 H          -3.4083   -2.0669   -1.3016 H       1  UNL1        0.0274
     25 H          -1.7619   -1.8614   -0.6898 H       1  UNL1        0.0274
     26 H          -3.0224   -2.4406    0.3911 H       1  UNL1        0.0274
     27 H           4.4444    0.0152    0.8674 H       1  UNL1        0.0601
     28 H           4.0305    0.1755   -0.8573 H       1  UNL1        0.0601
     29 H           4.1495   -2.1903    0.6774 H       1  UNL1        0.2098
@<TRIPOS>BOND
     1     1    11    1
     2     1    29    1
     3     2     3    1
     4     2     4    1
     5     2    12    1
     6     2    13    1
     7     3     5    1
     8     3    14    1
     9     3    15    1
    10     4     7    1
    11     4     8    2
    12     5     6    2
    13     5    16    1
    14     6     9    1
    15     6    10    1
    16     7    17    1
    17     7    18    1
    18     7    19    1
    19     8    11    1
    20     8    20    1
    21     9    21    1
    22     9    22    1
    23     9    23    1
    24    10    24    1
    25    10    25    1
    26    10    26    1
    27    11    27    1
    28    11    28    1
