@<TRIPOS>MOLECULE
40539
 20 20 0 0 0
SMALL
GASTEIGER

@<TRIPOS>ATOM
      1 O          -1.4706   -1.1924    0.0262 O.2     1  UNL1       -0.3161
      2 O           1.2218    0.8343   -1.5849 O.3     1  UNL1       -0.4795
      3 O          -0.4481    1.9469    0.9669 O.2     1  UNL1       -0.2436
      4 OXT         3.0192    1.1273   -0.3030 O.2     1  UNL1       -0.2492
      5 O          -3.4933   -0.7409   -0.9775 O.2     1  UNL1       -0.2209
      6 N          -0.5726   -0.3609    0.7382 N.ar    1  UNL1       -0.1488
      7 N           2.9699   -1.6643    0.3493 N.3     1  UNL1       -0.3169
      8 N          -2.2509    0.8858    0.0474 N.ar    1  UNL1       -0.2398
      9 C           0.7438   -0.8799    1.0697 C.3     1  UNL1        0.0872
     10 CA          1.7327   -0.9751   -0.0999 C.3     1  UNL1        0.1244
     11 C          -1.0295    0.9300    0.6295 C.ar    1  UNL1        0.3606
     12 C           2.0784    0.4202   -0.6253 C.2     1  UNL1        0.3236
     13 C          -2.5106   -0.3765   -0.3579 C.ar    1  UNL1        0.4409
     14 H           1.1542   -0.2287    1.8511 H       1  UNL1        0.0545
     15 H           0.5801   -1.8742    1.5020 H       1  UNL1        0.0545
     16 HA          1.3136   -1.5570   -0.9293 H       1  UNL1        0.0593
     17 H1          3.6763   -1.6105   -0.3860 H       1  UNL1        0.1190
     18 H2          2.7838   -2.6521    0.5127 H       1  UNL1        0.1190
     19 H          -2.8164    1.6852   -0.1693 H       1  UNL1        0.1767
     20 H           1.5600    1.7286   -1.8122 H       1  UNL1        0.2951
@<TRIPOS>BOND
     1     1     6   ar
     2     1    13   ar
     3     2    12    1
     4     2    20    1
     5     3    11    2
     6     4    12    2
     7     5    13    2
     8     6     9    1
     9     6    11   ar
    10     7    10    1
    11     7    17    1
    12     7    18    1
    13     8    11   ar
    14     8    13   ar
    15     8    19    1
    16     9    10    1
    17     9    14    1
    18     9    15    1
    19    10    12    1
    20    10    16    1
