@<TRIPOS>MOLECULE
90785
 42 43 0 0 0
SMALL
GASTEIGER

@<TRIPOS>ATOM
      1 O          -3.0661   -1.7605    0.0990 O.3     1  UNL1       -0.3888
      2 C           1.0148   -0.6718    0.3600 C.3     1  UNL1       -0.0167
      3 C           1.9460   -1.7940   -0.1592 C.3     1  UNL1       -0.0371
      4 C          -0.3828   -0.8124   -0.2646 C.3     1  UNL1       -0.0408
      5 C          -1.4892    0.0692    0.3675 C.3     1  UNL1       -0.0118
      6 C           1.7501    0.5961   -0.0427 C.2     1  UNL1       -0.0672
      7 C           3.3344   -1.1668   -0.1217 C.3     1  UNL1       -0.0462
      8 C           3.0891    0.2408   -0.6402 C.3     1  UNL1       -0.0310
      9 C          -1.2317    1.5786    0.1706 C.3     1  UNL1       -0.0439
     10 C          -2.9094   -0.3546   -0.1498 C.3     1  UNL1        0.0634
     11 C           1.2995    1.8471    0.1703 C.2     1  UNL1       -0.0731
     12 C           0.0032    2.1127    0.8944 C.3     1  UNL1       -0.0314
     13 C           1.8673   -3.0768    0.6576 C.3     1  UNL1       -0.0619
     14 C          -3.0995   -0.1223   -1.6543 C.3     1  UNL1       -0.0361
     15 C          -4.0362    0.3441    0.6253 C.3     1  UNL1       -0.0361
     16 C           2.0364    3.0853   -0.2707 C.3     1  UNL1       -0.0435
     17 H           0.9556   -0.7222    1.4554 H       1  UNL1        0.0348
     18 H           1.6994   -2.0338   -1.2035 H       1  UNL1        0.0304
     19 H          -0.3178   -0.6056   -1.3401 H       1  UNL1        0.0275
     20 H          -0.6797   -1.8637   -0.1726 H       1  UNL1        0.0275
     21 H          -1.4718   -0.1424    1.4468 H       1  UNL1        0.0329
     22 H           4.0520   -1.7107   -0.7441 H       1  UNL1        0.0271
     23 H           3.7281   -1.1354    0.9023 H       1  UNL1        0.0271
     24 H           3.0189    0.2400   -1.7338 H       1  UNL1        0.0310
     25 H           3.8967    0.9084   -0.3283 H       1  UNL1        0.0310
     26 H          -2.0838    2.1420    0.5641 H       1  UNL1        0.0272
     27 H          -1.1661    1.8198   -0.8973 H       1  UNL1        0.0272
     28 H           0.0577    1.7204    1.9173 H       1  UNL1        0.0310
     29 H          -0.1230    3.1977    1.0076 H       1  UNL1        0.0310
     30 H           2.1056   -2.8964    1.7110 H       1  UNL1        0.0233
     31 H           0.8647   -3.5128    0.6085 H       1  UNL1        0.0233
     32 H           2.5753   -3.8197    0.2749 H       1  UNL1        0.0233
     33 H          -4.0883   -0.4719   -1.9771 H       1  UNL1        0.0257
     34 H          -3.0153    0.9350   -1.9214 H       1  UNL1        0.0257
     35 H          -2.3744   -0.6923   -2.2437 H       1  UNL1        0.0257
     36 H          -3.8877    0.2382    1.7059 H       1  UNL1        0.0257
     37 H          -5.0061   -0.1158    0.4024 H       1  UNL1        0.0257
     38 H          -4.1118    1.4085    0.3852 H       1  UNL1        0.0257
     39 H           2.9218    2.8698   -0.8747 H       1  UNL1        0.0274
     40 H           2.3548    3.6658    0.6007 H       1  UNL1        0.0274
     41 H           1.3798    3.7122   -0.8844 H       1  UNL1        0.0274
     42 H          -3.9220   -2.0397   -0.2688 H       1  UNL1        0.2101
@<TRIPOS>BOND
     1     1    10    1
     2     1    42    1
     3     2     3    1
     4     2     4    1
     5     2     6    1
     6     2    17    1
     7     3     7    1
     8     3    13    1
     9     3    18    1
    10     4     5    1
    11     4    19    1
    12     4    20    1
    13     5     9    1
    14     5    10    1
    15     5    21    1
    16     6     8    1
    17     6    11    2
    18     7     8    1
    19     7    22    1
    20     7    23    1
    21     8    24    1
    22     8    25    1
    23     9    12    1
    24     9    26    1
    25     9    27    1
    26    10    14    1
    27    10    15    1
    28    11    12    1
    29    11    16    1
    30    12    28    1
    31    12    29    1
    32    13    30    1
    33    13    31    1
    34    13    32    1
    35    14    33    1
    36    14    34    1
    37    14    35    1
    38    15    36    1
    39    15    37    1
    40    15    38    1
    41    16    39    1
    42    16    40    1
    43    16    41    1
