@<TRIPOS>MOLECULE
4276
 26 27 0 0 0
SMALL
GASTEIGER

@<TRIPOS>ATOM
      1 O           2.7989    0.0261   -0.1724 O.3     1  UNL1       -0.4489
      2 O           1.8555   -2.1880   -0.3214 O.3     1  UNL1       -0.4525
      3 O           1.1859    2.3578    0.5225 O.3     1  UNL1       -0.4913
      4 C          -1.2546   -0.4007    0.4910 C.ar    1  UNL1       -0.0365
      5 C           1.4563    0.0216    0.0537 C.ar    1  UNL1        0.2075
      6 C           0.9206   -1.2424   -0.0323 C.ar    1  UNL1        0.1702
      7 C           0.6605    1.1106    0.3452 C.ar    1  UNL1        0.1656
      8 C          -0.4221   -1.4875    0.1747 C.ar    1  UNL1       -0.0124
      9 C          -0.7026    0.8983    0.5721 C.ar    1  UNL1       -0.0126
     10 C          -2.7309   -0.6153    0.7263 C.3     1  UNL1       -0.0095
     11 C           3.0436   -1.3752   -0.4034 C.3     1  UNL1        0.2334
     12 C          -3.5302   -0.4947   -0.5395 C.2     1  UNL1       -0.0868
     13 C           1.2164    3.0693   -0.7130 C.3     1  UNL1        0.0790
     14 C          -4.4750    0.4323   -0.7517 C.2     1  UNL1       -0.1023
     15 H          -0.8115   -2.4972    0.1017 H       1  UNL1        0.0658
     16 H          -1.3371    1.7449    0.8239 H       1  UNL1        0.0658
     17 H          -2.8925   -1.6122    1.1552 H       1  UNL1        0.0355
     18 H          -3.0826    0.0933    1.4874 H       1  UNL1        0.0355
     19 H           3.4778   -1.4953   -1.4025 H       1  UNL1        0.1166
     20 H           3.7664   -1.7342    0.3384 H       1  UNL1        0.1166
     21 H          -3.3230   -1.2228   -1.3214 H       1  UNL1        0.0570
     22 H           1.6656    4.0494   -0.5210 H       1  UNL1        0.0660
     23 H           0.2037    3.2339   -1.0973 H       1  UNL1        0.0660
     24 H           1.8314    2.5563   -1.4597 H       1  UNL1        0.0660
     25 H          -5.0211    0.4626   -1.6891 H       1  UNL1        0.0532
     26 H          -4.7204    1.1779   -0.0027 H       1  UNL1        0.0532
@<TRIPOS>BOND
     1     1     5    1
     2     1    11    1
     3     2     6    1
     4     2    11    1
     5     3     7    1
     6     3    13    1
     7     4     8   ar
     8     4     9   ar
     9     4    10    1
    10     5     6   ar
    11     5     7   ar
    12     6     8   ar
    13     7     9   ar
    14     8    15    1
    15     9    16    1
    16    10    12    1
    17    10    17    1
    18    10    18    1
    19    11    19    1
    20    11    20    1
    21    12    14    2
    22    12    21    1
    23    13    22    1
    24    13    23    1
    25    13    24    1
    26    14    25    1
    27    14    26    1
