@<TRIPOS>MOLECULE
8207
 42 41 0 0 0
SMALL
GASTEIGER

@<TRIPOS>ATOM
      1 O          -8.1138    0.3439    0.1109 O.3     1  UNL1       -0.3950
      2 C           0.6306   -0.4114   -0.0682 C.3     1  UNL1       -0.0531
      3 C          -0.6525    0.4267   -0.0652 C.3     1  UNL1       -0.0531
      4 C           1.8900    0.4654   -0.0558 C.3     1  UNL1       -0.0531
      5 C          -1.9082   -0.4547   -0.0585 C.3     1  UNL1       -0.0531
      6 C           3.1684   -0.3832   -0.0427 C.3     1  UNL1       -0.0531
      7 C          -3.1880    0.3875   -0.0260 C.3     1  UNL1       -0.0530
      8 C           4.4344    0.4817   -0.0118 C.3     1  UNL1       -0.0531
      9 C          -4.4458   -0.4876   -0.0361 C.3     1  UNL1       -0.0510
     10 C           5.7061   -0.3750    0.0297 C.3     1  UNL1       -0.0533
     11 C          -5.7169    0.3593    0.0271 C.3     1  UNL1       -0.0297
     12 C           6.9706    0.4871    0.0194 C.3     1  UNL1       -0.0559
     13 C          -6.9718   -0.5032    0.0443 C.3     1  UNL1        0.0442
     14 C           8.2336   -0.3555    0.1258 C.3     1  UNL1       -0.0653
     15 H           0.6436   -1.0563   -0.9553 H       1  UNL1        0.0265
     16 H           0.6371   -1.0697    0.8089 H       1  UNL1        0.0265
     17 H          -0.6686    1.0764   -0.9488 H       1  UNL1        0.0265
     18 H          -0.6613    1.0796    0.8161 H       1  UNL1        0.0265
     19 H           1.8738    1.1152    0.8275 H       1  UNL1        0.0265
     20 H           1.8917    1.1175   -0.9373 H       1  UNL1        0.0265
     21 H          -1.9121   -1.0945   -0.9493 H       1  UNL1        0.0265
     22 H          -1.8864   -1.1175    0.8152 H       1  UNL1        0.0265
     23 H           3.1880   -1.0249   -0.9321 H       1  UNL1        0.0265
     24 H           3.1573   -1.0446    0.8320 H       1  UNL1        0.0265
     25 H          -3.2066    1.0620   -0.8904 H       1  UNL1        0.0265
     26 H          -3.1883    1.0149    0.8737 H       1  UNL1        0.0265
     27 H           4.4567    1.1293   -0.8962 H       1  UNL1        0.0265
     28 H           4.4091    1.1359    0.8682 H       1  UNL1        0.0265
     29 H          -4.4219   -1.1756    0.8177 H       1  UNL1        0.0266
     30 H          -4.4596   -1.1008   -0.9453 H       1  UNL1        0.0266
     31 H           5.7219   -1.0539   -0.8314 H       1  UNL1        0.0265
     32 H           5.6954   -0.9991    0.9320 H       1  UNL1        0.0265
     33 H          -5.7048    0.9972    0.9199 H       1  UNL1        0.0287
     34 H          -5.7601    1.0443   -0.8290 H       1  UNL1        0.0287
     35 H           7.0107    1.0750   -0.9066 H       1  UNL1        0.0263
     36 H           6.9461    1.1975    0.8530 H       1  UNL1        0.0263
     37 H          -7.0436   -1.1098   -0.8631 H       1  UNL1        0.0557
     38 H          -6.9808   -1.1635    0.9176 H       1  UNL1        0.0557
     39 H           8.2478   -0.9242    1.0607 H       1  UNL1        0.0230
     40 H           9.1195    0.2865    0.1066 H       1  UNL1        0.0230
     41 H           8.3089   -1.0622   -0.7074 H       1  UNL1        0.0230
     42 H          -8.8962   -0.2328    0.1283 H       1  UNL1        0.2094
@<TRIPOS>BOND
     1     1    13    1
     2     1    42    1
     3     2     3    1
     4     2     4    1
     5     2    15    1
     6     2    16    1
     7     3     5    1
     8     3    17    1
     9     3    18    1
    10     4     6    1
    11     4    19    1
    12     4    20    1
    13     5     7    1
    14     5    21    1
    15     5    22    1
    16     6     8    1
    17     6    23    1
    18     6    24    1
    19     7     9    1
    20     7    25    1
    21     7    26    1
    22     8    10    1
    23     8    27    1
    24     8    28    1
    25     9    11    1
    26     9    29    1
    27     9    30    1
    28    10    12    1
    29    10    31    1
    30    10    32    1
    31    11    13    1
    32    11    33    1
    33    11    34    1
    34    12    14    1
    35    12    35    1
    36    12    36    1
    37    13    37    1
    38    13    38    1
    39    14    39    1
    40    14    40    1
    41    14    41    1
