@<TRIPOS>MOLECULE
10910653
 39 41 0 0 0
SMALL
GASTEIGER

@<TRIPOS>ATOM
      1 C          -0.8974   -0.0730    0.5547 C.3     1  UNL1       -0.0255
      2 C          -2.2498    0.4575    0.1188 C.3     1  UNL1       -0.0281
      3 C          -1.1568    1.4142    0.5471 C.3     1  UNL1       -0.0314
      4 C           0.0935   -0.6158   -0.4413 C.3     1  UNL1       -0.0135
      5 C          -0.4290    2.2681   -0.4483 C.3     1  UNL1       -0.0457
      6 C           0.1896   -2.1532   -0.4719 C.3     1  UNL1       -0.0368
      7 C           1.5128   -0.1568   -0.1444 C.2     1  UNL1       -0.0669
      8 C          -3.3951    0.2606    1.0699 C.3     1  UNL1       -0.0593
      9 C          -2.6654    0.3827   -1.3215 C.3     1  UNL1       -0.0593
     10 C           1.0624    2.3803   -0.1335 C.3     1  UNL1       -0.0315
     11 C           1.3556   -2.4598    0.4563 C.3     1  UNL1       -0.0462
     12 C           2.3680   -1.3752    0.1082 C.3     1  UNL1       -0.0310
     13 C           1.9260    1.1253   -0.0297 C.2     1  UNL1       -0.0731
     14 C          -1.0756   -2.9260   -0.1299 C.3     1  UNL1       -0.0619
     15 C           3.3703    1.4690    0.2593 C.3     1  UNL1       -0.0435
     16 H          -0.8039   -0.5289    1.5366 H       1  UNL1        0.0315
     17 H          -1.2479    1.9050    1.5119 H       1  UNL1        0.0309
     18 H          -0.1400   -0.3062   -1.4607 H       1  UNL1        0.0351
     19 H          -0.8798    3.2676   -0.4204 H       1  UNL1        0.0271
     20 H          -0.5415    1.9281   -1.4780 H       1  UNL1        0.0271
     21 H           0.4848   -2.4461   -1.4898 H       1  UNL1        0.0304
     22 H          -3.0776    0.3225    2.1132 H       1  UNL1        0.0235
     23 H          -4.1553    1.0275    0.8990 H       1  UNL1        0.0235
     24 H          -3.8457   -0.7224    0.9089 H       1  UNL1        0.0235
     25 H          -1.8698    0.4983   -2.0575 H       1  UNL1        0.0235
     26 H          -3.1345   -0.5856   -1.5153 H       1  UNL1        0.0235
     27 H          -3.3981    1.1682   -1.5261 H       1  UNL1        0.0235
     28 H           1.1559    2.9170    0.8184 H       1  UNL1        0.0310
     29 H           1.4984    3.0276   -0.9036 H       1  UNL1        0.0310
     30 H           1.7635   -3.4611    0.2918 H       1  UNL1        0.0271
     31 H           1.0563   -2.3825    1.5091 H       1  UNL1        0.0271
     32 H           2.9140   -1.6407   -0.8040 H       1  UNL1        0.0310
     33 H           3.0752   -1.2451    0.9307 H       1  UNL1        0.0310
     34 H          -1.4003   -2.7533    0.9006 H       1  UNL1        0.0233
     35 H          -1.8946   -2.6512   -0.8013 H       1  UNL1        0.0233
     36 H          -0.9012   -4.0018   -0.2405 H       1  UNL1        0.0233
     37 H           3.4608    1.8912    1.2652 H       1  UNL1        0.0274
     38 H           3.7321    2.2099   -0.4614 H       1  UNL1        0.0274
     39 H           4.0450    0.6127    0.1887 H       1  UNL1        0.0274
@<TRIPOS>BOND
     1     1     2    1
     2     1     3    1
     3     1     4    1
     4     1    16    1
     5     2     3    1
     6     2     8    1
     7     2     9    1
     8     3     5    1
     9     3    17    1
    10     4     6    1
    11     4     7    1
    12     4    18    1
    13     5    10    1
    14     5    19    1
    15     5    20    1
    16     6    11    1
    17     6    14    1
    18     6    21    1
    19     7    12    1
    20     7    13    2
    21     8    22    1
    22     8    23    1
    23     8    24    1
    24     9    25    1
    25     9    26    1
    26     9    27    1
    27    10    13    1
    28    10    28    1
    29    10    29    1
    30    11    12    1
    31    11    30    1
    32    11    31    1
    33    12    32    1
    34    12    33    1
    35    13    15    1
    36    14    34    1
    37    14    35    1
    38    14    36    1
    39    15    37    1
    40    15    38    1
    41    15    39    1
