@<TRIPOS>MOLECULE
1549095
 25 25 0 0 0
SMALL
GASTEIGER

@<TRIPOS>ATOM
      1 O          -2.1752    1.7529   -0.5104 O.3     1  UNL1       -0.4914
      2 O          -3.6840   -0.5475   -0.1238 O.3     1  UNL1       -0.5033
      3 O           4.8466    0.9369   -0.5827 O.3     1  UNL1       -0.3910
      4 C           0.4907   -0.7048    0.0181 C.ar    1  UNL1       -0.0216
      5 C          -0.1764    0.5064   -0.2092 C.ar    1  UNL1       -0.0092
      6 C          -1.5720    0.5538   -0.2349 C.ar    1  UNL1        0.1618
      7 C          -0.2763   -1.8716    0.1669 C.ar    1  UNL1       -0.0509
      8 C          -2.3209   -0.6117   -0.0782 C.ar    1  UNL1        0.1585
      9 C          -1.6753   -1.8295    0.1204 C.ar    1  UNL1       -0.0160
     10 C           1.9593   -0.8103    0.0567 C.2     1  UNL1       -0.0563
     11 C           2.7988    0.2027    0.3334 C.2     1  UNL1       -0.0584
     12 C           4.2842    0.0700    0.3879 C.3     1  UNL1        0.0627
     13 C          -2.4826    2.4374    0.7028 C.3     1  UNL1        0.0790
     14 H           0.3734    1.4266   -0.3811 H       1  UNL1        0.0661
     15 H           0.2098   -2.8334    0.3226 H       1  UNL1        0.0625
     16 H          -2.2368   -2.7501    0.2371 H       1  UNL1        0.0655
     17 H           2.3658   -1.8003   -0.1417 H       1  UNL1        0.0621
     18 H           2.4224    1.1957    0.5620 H       1  UNL1        0.0595
     19 H           4.6516    0.3700    1.3737 H       1  UNL1        0.0601
     20 H           4.6267   -0.9503    0.1882 H       1  UNL1        0.0601
     21 H          -1.5705    2.6764    1.2616 H       1  UNL1        0.0660
     22 H          -3.1729    1.8615    1.3281 H       1  UNL1        0.0660
     23 H          -2.9707    3.3808    0.4391 H       1  UNL1        0.0660
     24 H          -4.0433   -1.4482   -0.0794 H       1  UNL1        0.2923
     25 H           4.4690    0.6799   -1.4412 H       1  UNL1        0.2098
@<TRIPOS>BOND
     1     1     6    1
     2     1    13    1
     3     2     8    1
     4     2    24    1
     5     3    12    1
     6     3    25    1
     7     4     5   ar
     8     4     7   ar
     9     4    10    1
    10     5     6   ar
    11     5    14    1
    12     6     8   ar
    13     7     9   ar
    14     7    15    1
    15     8     9   ar
    16     9    16    1
    17    10    11    2
    18    10    17    1
    19    11    12    1
    20    11    18    1
    21    12    19    1
    22    12    20    1
    23    13    21    1
    24    13    22    1
    25    13    23    1
