@<TRIPOS>MOLECULE
12046149
 42 43 0 0 0
SMALL
GASTEIGER

@<TRIPOS>ATOM
      1 O           1.8667   -0.8997    1.4439 O.3     1  UNL1       -0.3877
      2 C           0.9690   -0.8499    0.3161 C.3     1  UNL1        0.0754
      3 C          -0.0806    0.2695    0.5878 C.3     1  UNL1        0.0095
      4 C          -1.3199    0.1713   -0.3523 C.3     1  UNL1       -0.0298
      5 C           0.2949   -2.2460    0.2669 C.3     1  UNL1       -0.0144
      6 C          -1.9111   -1.2482   -0.3624 C.3     1  UNL1       -0.0490
      7 C          -0.8772   -2.2966   -0.7084 C.3     1  UNL1       -0.0476
      8 C           1.7843   -0.5006   -0.9434 C.3     1  UNL1       -0.0195
      9 C          -2.4332    1.1809    0.0230 C.3     1  UNL1       -0.0433
     10 C           0.5353    1.6543    0.4934 C.2     1  UNL1       -0.0789
     11 C           2.4933    0.8549   -0.8274 C.3     1  UNL1       -0.0294
     12 C           1.2711   -3.3859   -0.0444 C.3     1  UNL1       -0.0598
     13 C           1.6906    1.9237   -0.1374 C.2     1  UNL1       -0.0761
     14 C          -3.5593    1.1446   -1.0119 C.3     1  UNL1       -0.0624
     15 C          -2.9740    0.8967    1.4246 C.3     1  UNL1       -0.0624
     16 C           2.2677    3.3076   -0.1718 C.3     1  UNL1       -0.0438
     17 H          -0.3944    0.1432    1.6312 H       1  UNL1        0.0374
     18 H          -0.9942    0.4092   -1.3770 H       1  UNL1        0.0310
     19 H          -0.0953   -2.4547    1.2751 H       1  UNL1        0.0326
     20 H          -2.7265   -1.3251   -1.0894 H       1  UNL1        0.0268
     21 H          -2.3325   -1.5041    0.6153 H       1  UNL1        0.0268
     22 H          -1.3583   -3.2782   -0.6669 H       1  UNL1        0.0269
     23 H          -0.5394   -2.1506   -1.7378 H       1  UNL1        0.0269
     24 H           1.1374   -0.4918   -1.8282 H       1  UNL1        0.0296
     25 H           2.5588   -1.2521   -1.1254 H       1  UNL1        0.0296
     26 H          -2.0272    2.1998    0.0057 H       1  UNL1        0.0298
     27 H           0.0035    2.4617    0.9943 H       1  UNL1        0.0575
     28 H           2.7647    1.1893   -1.8359 H       1  UNL1        0.0311
     29 H           3.4322    0.7203   -0.2755 H       1  UNL1        0.0311
     30 H           2.1184   -3.3977    0.6481 H       1  UNL1        0.0233
     31 H           0.7649   -4.3524    0.0505 H       1  UNL1        0.0233
     32 H           1.6593   -3.3215   -1.0654 H       1  UNL1        0.0233
     33 H           2.6627   -1.3823    1.1714 H       1  UNL1        0.2102
     34 H          -4.1748    0.2443   -0.9266 H       1  UNL1        0.0232
     35 H          -4.2256    2.0003   -0.8630 H       1  UNL1        0.0232
     36 H          -3.1643    1.2027   -2.0309 H       1  UNL1        0.0232
     37 H          -3.4999   -0.0589    1.4913 H       1  UNL1        0.0232
     38 H          -3.7007    1.6698    1.6916 H       1  UNL1        0.0232
     39 H          -2.1984    0.9212    2.1916 H       1  UNL1        0.0232
     40 H           3.2593    3.3172    0.2920 H       1  UNL1        0.0274
     41 H           1.6422    4.0302    0.3629 H       1  UNL1        0.0274
     42 H           2.3627    3.6508   -1.2066 H       1  UNL1        0.0274
@<TRIPOS>BOND
     1     1     2    1
     2     1    33    1
     3     2     3    1
     4     2     5    1
     5     2     8    1
     6     3     4    1
     7     3    10    1
     8     3    17    1
     9     4     6    1
    10     4     9    1
    11     4    18    1
    12     5     7    1
    13     5    12    1
    14     5    19    1
    15     6     7    1
    16     6    20    1
    17     6    21    1
    18     7    22    1
    19     7    23    1
    20     8    11    1
    21     8    24    1
    22     8    25    1
    23     9    14    1
    24     9    15    1
    25     9    26    1
    26    10    13    2
    27    10    27    1
    28    11    13    1
    29    11    28    1
    30    11    29    1
    31    12    30    1
    32    12    31    1
    33    12    32    1
    34    13    16    1
    35    14    34    1
    36    14    35    1
    37    14    36    1
    38    15    37    1
    39    15    38    1
    40    15    39    1
    41    16    40    1
    42    16    41    1
    43    16    42    1
