@<TRIPOS>MOLECULE
61290
 33 32 0 0 0
SMALL
GASTEIGER

@<TRIPOS>ATOM
      1 O          -1.8062    1.3765    0.4050 O.3     1  UNL1       -0.4679
      2 O          -3.3401    0.3075   -0.9308 O.2     1  UNL1       -0.2509
      3 C          -0.5518   -1.2859    0.4266 C.3     1  UNL1       -0.0335
      4 C           0.6249   -2.2231    0.0719 C.3     1  UNL1       -0.0465
      5 C          -1.0692   -0.5141   -0.7975 C.3     1  UNL1        0.0475
      6 C           1.8397   -1.5550   -0.5895 C.3     1  UNL1       -0.0343
      7 C          -1.6770   -2.1176    1.0588 C.3     1  UNL1       -0.0619
      8 C           2.4872   -0.5170    0.2844 C.2     1  UNL1       -0.0853
      9 C          -2.2131    0.4119   -0.4662 C.2     1  UNL1        0.3071
     10 C           2.7364    0.7765    0.0026 C.2     1  UNL1       -0.0796
     11 C           3.4052    1.6638    1.0225 C.3     1  UNL1       -0.0440
     12 C           2.4108    1.4729   -1.2903 C.3     1  UNL1       -0.0440
     13 C          -2.8365    2.2837    0.7951 C.3     1  UNL1        0.0817
     14 H          -0.2109   -0.5698    1.1848 H       1  UNL1        0.0303
     15 H           0.9590   -2.7284    0.9873 H       1  UNL1        0.0271
     16 H           0.2657   -3.0144   -0.5987 H       1  UNL1        0.0271
     17 H          -0.2865    0.1032   -1.2484 H       1  UNL1        0.0380
     18 H          -1.4065   -1.2113   -1.5744 H       1  UNL1        0.0380
     19 H           1.5554   -1.1657   -1.5695 H       1  UNL1        0.0307
     20 H           2.5880   -2.3328   -0.7875 H       1  UNL1        0.0307
     21 H          -2.1081   -2.8165    0.3329 H       1  UNL1        0.0233
     22 H          -1.3038   -2.6991    1.9089 H       1  UNL1        0.0233
     23 H          -2.4833   -1.4781    1.4323 H       1  UNL1        0.0233
     24 H           2.7929   -0.8954    1.2602 H       1  UNL1        0.0571
     25 H           4.3512    2.0483    0.6277 H       1  UNL1        0.0274
     26 H           3.6261    1.1336    1.9545 H       1  UNL1        0.0274
     27 H           2.7592    2.5126    1.2681 H       1  UNL1        0.0274
     28 H           1.6703    2.2604   -1.1152 H       1  UNL1        0.0274
     29 H           2.0111    0.8077   -2.0577 H       1  UNL1        0.0274
     30 H           3.3123    1.9350   -1.7066 H       1  UNL1        0.0274
     31 H          -2.4050    3.0006    1.4987 H       1  UNL1        0.0661
     32 H          -3.6470    1.7485    1.3002 H       1  UNL1        0.0661
     33 H          -3.2137    2.8324   -0.0730 H       1  UNL1        0.0661
@<TRIPOS>BOND
     1     1     9    1
     2     1    13    1
     3     2     9    2
     4     3     4    1
     5     3     5    1
     6     3     7    1
     7     3    14    1
     8     4     6    1
     9     4    15    1
    10     4    16    1
    11     5     9    1
    12     5    17    1
    13     5    18    1
    14     6     8    1
    15     6    19    1
    16     6    20    1
    17     7    21    1
    18     7    22    1
    19     7    23    1
    20     8    10    2
    21     8    24    1
    22    10    11    1
    23    10    12    1
    24    11    25    1
    25    11    26    1
    26    11    27    1
    27    12    28    1
    28    12    29    1
    29    12    30    1
    30    13    31    1
    31    13    32    1
    32    13    33    1
