@<TRIPOS>MOLECULE
5280794
 78 81 0 0 0
SMALL
GASTEIGER

@<TRIPOS>ATOM
      1 O           8.4417   -0.1589    0.4047 O.3     1  UNL1       -0.3915
      2 C          -0.2554    0.5531   -0.2439 C.3     1  UNL1       -0.0256
      3 C           0.4621   -0.7256    0.2446 C.3     1  UNL1       -0.0320
      4 C           1.9122   -0.8328   -0.2387 C.3     1  UNL1       -0.0307
      5 C           2.7119    0.4120    0.2402 C.3     1  UNL1       -0.0285
      6 C          -1.6649    0.2976    0.3582 C.3     1  UNL1       -0.0294
      7 C           0.5066    1.7461    0.3544 C.3     1  UNL1       -0.0468
      8 C           4.2032    0.3794   -0.2724 C.3     1  UNL1       -0.0078
      9 C          -0.5037   -1.8486   -0.1095 C.3     1  UNL1       -0.0492
     10 C           1.9821    1.7440   -0.0598 C.3     1  UNL1       -0.0486
     11 C          -1.8915   -1.2194    0.0883 C.3     1  UNL1       -0.0489
     12 C           2.5710   -2.1168    0.2873 C.3     1  UNL1       -0.0311
     13 C          -0.3241    0.6753   -1.7864 C.3     1  UNL1       -0.0590
     14 C           4.8065   -1.0205   -0.0892 C.2     1  UNL1       -0.0648
     15 C          -2.8365    1.1779   -0.1354 C.3     1  UNL1       -0.0224
     16 C           5.0240    1.4089    0.5613 C.3     1  UNL1       -0.0413
     17 C           4.0634   -2.1098    0.1727 C.2     1  UNL1       -0.0839
     18 C           4.2916    0.7483   -1.7732 C.3     1  UNL1       -0.0556
     19 C           6.3111   -1.1362   -0.2060 C.3     1  UNL1       -0.0051
     20 C           6.5354    1.3103    0.3710 C.3     1  UNL1       -0.0258
     21 C           7.0386   -0.1016    0.6545 C.3     1  UNL1        0.0590
     22 C          -2.6324    2.6693    0.1432 C.3     1  UNL1       -0.0587
     23 C          -4.1267    0.7494    0.5248 C.2     1  UNL1       -0.0845
     24 C          -5.1888    0.3081   -0.1673 C.2     1  UNL1       -0.0843
     25 C          -6.5026   -0.0847    0.4668 C.3     1  UNL1       -0.0208
     26 C          -6.8754   -1.5731    0.2012 C.3     1  UNL1       -0.0405
     27 C          -7.6178    0.8798    0.0068 C.3     1  UNL1       -0.0494
     28 C          -5.8378   -2.5340    0.7966 C.3     1  UNL1       -0.0621
     29 C          -7.0979   -1.9166   -1.2764 C.3     1  UNL1       -0.0621
     30 C          -7.3876    2.3224    0.4498 C.3     1  UNL1       -0.0647
     31 H           0.5008   -0.6956    1.3468 H       1  UNL1        0.0309
     32 H           1.9254   -0.8793   -1.3334 H       1  UNL1        0.0309
     33 H           2.7470    0.3400    1.3398 H       1  UNL1        0.0312
     34 H          -1.5938    0.4186    1.4509 H       1  UNL1        0.0312
     35 H           0.4443    1.7238    1.4499 H       1  UNL1        0.0271
     36 H           0.0707    2.6976    0.0395 H       1  UNL1        0.0271
     37 H          -0.3689   -2.7244    0.5339 H       1  UNL1        0.0268
     38 H          -0.3773   -2.1781   -1.1466 H       1  UNL1        0.0268
     39 H           2.0370    1.9854   -1.1251 H       1  UNL1        0.0268
     40 H           2.4786    2.5671    0.4662 H       1  UNL1        0.0268
     41 H          -2.5027   -1.3923   -0.8051 H       1  UNL1        0.0268
     42 H          -2.4096   -1.6840    0.9351 H       1  UNL1        0.0268
     43 H           2.1787   -2.9756   -0.2708 H       1  UNL1        0.0310
     44 H           2.3145   -2.2796    1.3415 H       1  UNL1        0.0310
     45 H           0.6610    0.6392   -2.2593 H       1  UNL1        0.0235
     46 H          -0.9201   -0.1221   -2.2421 H       1  UNL1        0.0235
     47 H          -0.7781    1.6263   -2.0829 H       1  UNL1        0.0235
     48 H          -2.9446    1.0568   -1.2204 H       1  UNL1        0.0343
     49 H           4.8084    1.2709    1.6298 H       1  UNL1        0.0274
     50 H           4.7158    2.4319    0.3151 H       1  UNL1        0.0274
     51 H           4.5473   -3.0752    0.3153 H       1  UNL1        0.0572
     52 H           5.3039    0.6292   -2.1723 H       1  UNL1        0.0238
     53 H           3.6349    0.1215   -2.3853 H       1  UNL1        0.0238
     54 H           4.0181    1.7938   -1.9499 H       1  UNL1        0.0238
     55 H           6.6618   -2.1374    0.0763 H       1  UNL1        0.0335
     56 H           6.6052   -1.0207   -1.2568 H       1  UNL1        0.0335
     57 H           6.8156    1.6188   -0.6436 H       1  UNL1        0.0290
     58 H           7.0394    2.0198    1.0393 H       1  UNL1        0.0290
     59 H           6.8888   -0.3364    1.7151 H       1  UNL1        0.0596
     60 H          -1.9407    3.1089   -0.5814 H       1  UNL1        0.0235
     61 H          -3.5687    3.2302    0.0545 H       1  UNL1        0.0235
     62 H          -2.2345    2.8401    1.1495 H       1  UNL1        0.0235
     63 H          -4.1779    0.8262    1.6100 H       1  UNL1        0.0572
     64 H          -5.1290    0.2500   -1.2516 H       1  UNL1        0.0572
     65 H           8.5869    0.0573   -0.5323 H       1  UNL1        0.2098
     66 H          -6.4146    0.0255    1.5576 H       1  UNL1        0.0345
     67 H          -7.8242   -1.7672    0.7219 H       1  UNL1        0.0301
     68 H          -7.7147    0.8690   -1.0855 H       1  UNL1        0.0268
     69 H          -8.5777    0.5430    0.4163 H       1  UNL1        0.0268
     70 H          -5.6630   -2.3161    1.8554 H       1  UNL1        0.0233
     71 H          -4.8795   -2.4743    0.2710 H       1  UNL1        0.0233
     72 H          -6.1886   -3.5691    0.7249 H       1  UNL1        0.0233
     73 H          -6.1892   -1.7733   -1.8695 H       1  UNL1        0.0233
     74 H          -7.8937   -1.3069   -1.7141 H       1  UNL1        0.0233
     75 H          -7.3990   -2.9642   -1.3840 H       1  UNL1        0.0233
     76 H          -7.2624    2.3857    1.5351 H       1  UNL1        0.0230
     77 H          -6.5017    2.7541   -0.0263 H       1  UNL1        0.0230
     78 H          -8.2454    2.9414    0.1699 H       1  UNL1        0.0230
@<TRIPOS>BOND
     1     1    21    1
     2     1    65    1
     3     2     3    1
     4     2     6    1
     5     2     7    1
     6     2    13    1
     7     3     4    1
     8     3     9    1
     9     3    31    1
    10     4     5    1
    11     4    12    1
    12     4    32    1
    13     5     8    1
    14     5    10    1
    15     5    33    1
    16     6    11    1
    17     6    15    1
    18     6    34    1
    19     7    10    1
    20     7    35    1
    21     7    36    1
    22     8    14    1
    23     8    16    1
    24     8    18    1
    25     9    11    1
    26     9    37    1
    27     9    38    1
    28    10    39    1
    29    10    40    1
    30    11    41    1
    31    11    42    1
    32    12    17    1
    33    12    43    1
    34    12    44    1
    35    13    45    1
    36    13    46    1
    37    13    47    1
    38    14    17    2
    39    14    19    1
    40    15    22    1
    41    15    23    1
    42    15    48    1
    43    16    20    1
    44    16    49    1
    45    16    50    1
    46    17    51    1
    47    18    52    1
    48    18    53    1
    49    18    54    1
    50    19    21    1
    51    19    55    1
    52    19    56    1
    53    20    21    1
    54    20    57    1
    55    20    58    1
    56    21    59    1
    57    22    60    1
    58    22    61    1
    59    22    62    1
    60    23    24    2
    61    23    63    1
    62    24    25    1
    63    24    64    1
    64    25    26    1
    65    25    27    1
    66    25    66    1
    67    26    28    1
    68    26    29    1
    69    26    67    1
    70    27    30    1
    71    27    68    1
    72    27    69    1
    73    28    70    1
    74    28    71    1
    75    28    72    1
    76    29    73    1
    77    29    74    1
    78    29    75    1
    79    30    76    1
    80    30    77    1
    81    30    78    1
