@<TRIPOS>MOLECULE
15558323
 36 36 0 0 0
SMALL
GASTEIGER

@<TRIPOS>ATOM
      1 O          -0.1958   -1.5549   -0.4750 O.3     1  UNL1       -0.4939
      2 O          -0.5381    3.2681   -0.3771 O.3     1  UNL1       -0.5062
      3 O           3.5379    1.1897    0.7740 O.3     1  UNL1       -0.5058
      4 O           3.1345   -1.8699   -0.6609 O.2     1  UNL1       -0.2921
      5 C          -0.4361    0.8360   -0.5164 C.ar    1  UNL1        0.0402
      6 C          -1.8766    0.6978   -0.9547 C.3     1  UNL1       -0.0023
      7 C           0.3694   -0.3104   -0.3353 C.ar    1  UNL1        0.1410
      8 C           1.6999   -0.1889    0.0952 C.ar    1  UNL1        0.1005
      9 C           0.1459    2.0886   -0.2646 C.ar    1  UNL1        0.1273
     10 C           2.2496    1.0713    0.3301 C.ar    1  UNL1        0.1343
     11 C          -2.8273    0.5858    0.2068 C.2     1  UNL1       -0.0807
     12 C           1.4768    2.2112    0.1373 C.ar    1  UNL1        0.0225
     13 C          -3.6391   -0.4546    0.4874 C.2     1  UNL1       -0.0793
     14 C           2.5229   -1.3939    0.2936 C.2     1  UNL1        0.1671
     15 C          -4.5224   -0.4458    1.7049 C.3     1  UNL1       -0.0440
     16 C          -3.7330   -1.7033   -0.3466 C.3     1  UNL1       -0.0440
     17 C           2.5433   -2.0020    1.6661 C.3     1  UNL1       -0.0012
     18 C          -0.0080   -2.0696   -1.7962 C.3     1  UNL1        0.0788
     19 H          -1.9655   -0.1407   -1.6493 H       1  UNL1        0.0358
     20 H          -2.1668    1.5634   -1.5627 H       1  UNL1        0.0358
     21 H          -2.8325    1.4371    0.8862 H       1  UNL1        0.0575
     22 H           1.8812    3.2038    0.3147 H       1  UNL1        0.0691
     23 H          -4.3964    0.4600    2.3062 H       1  UNL1        0.0274
     24 H          -5.5744   -0.5028    1.4070 H       1  UNL1        0.0274
     25 H          -4.2949   -1.3052    2.3443 H       1  UNL1        0.0274
     26 H          -3.5068   -1.5267   -1.4011 H       1  UNL1        0.0274
     27 H          -3.0473   -2.4644    0.0393 H       1  UNL1        0.0274
     28 H          -4.7494   -2.1106   -0.3173 H       1  UNL1        0.0274
     29 H           2.1721   -3.0283    1.6050 H       1  UNL1        0.0309
     30 H           1.9080   -1.4449    2.3592 H       1  UNL1        0.0309
     31 H           3.5673   -1.9972    2.0473 H       1  UNL1        0.0309
     32 H          -1.4937    3.0980   -0.3953 H       1  UNL1        0.2921
     33 H           0.0105   -1.2859   -2.5620 H       1  UNL1        0.0660
     34 H          -0.8526   -2.7319   -2.0132 H       1  UNL1        0.0660
     35 H           0.9076   -2.6647   -1.8447 H       1  UNL1        0.0660
     36 H           3.7859    2.1306    0.7921 H       1  UNL1        0.2922
@<TRIPOS>BOND
     1     1     7    1
     2     1    18    1
     3     2     9    1
     4     2    32    1
     5     3    10    1
     6     3    36    1
     7     4    14    2
     8     5     6    1
     9     5     7   ar
    10     5     9   ar
    11     6    11    1
    12     6    19    1
    13     6    20    1
    14     7     8   ar
    15     8    10   ar
    16     8    14    1
    17     9    12   ar
    18    10    12   ar
    19    11    13    2
    20    11    21    1
    21    12    22    1
    22    13    15    1
    23    13    16    1
    24    14    17    1
    25    15    23    1
    26    15    24    1
    27    15    25    1
    28    16    26    1
    29    16    27    1
    30    16    28    1
    31    17    29    1
    32    17    30    1
    33    17    31    1
    34    18    33    1
    35    18    34    1
    36    18    35    1
