@<TRIPOS>MOLECULE
7463
 24 24 0 0 0
SMALL
GASTEIGER

@<TRIPOS>ATOM
      1 C           2.2052   -0.3648   -0.0010 C.3     1  UNL1       -0.0215
      2 C           0.6975   -0.1948   -0.0006 C.ar    1  UNL1       -0.0448
      3 C           2.8338    0.2343    1.2602 C.3     1  UNL1       -0.0587
      4 C           2.8342    0.2337   -1.2613 C.3     1  UNL1       -0.0587
      5 C           0.1029    1.0748   -0.0021 C.ar    1  UNL1       -0.0581
      6 C          -0.1344   -1.3234   -0.0012 C.ar    1  UNL1       -0.0581
      7 C          -2.1115    0.0850    0.0215 C.ar    1  UNL1       -0.0504
      8 C          -1.2864    1.2133    0.0026 C.ar    1  UNL1       -0.0586
      9 C          -1.5252   -1.1844    0.0039 C.ar    1  UNL1       -0.0586
     10 C          -3.6027    0.2361    0.0011 C.3     1  UNL1       -0.0397
     11 H           2.4375   -1.4378   -0.0004 H       1  UNL1        0.0343
     12 H           2.7002    1.3206    1.3078 H       1  UNL1        0.0235
     13 H           3.9091    0.0302    1.2885 H       1  UNL1        0.0235
     14 H           2.3856   -0.1960    2.1628 H       1  UNL1        0.0235
     15 H           2.3868   -0.1969   -2.1645 H       1  UNL1        0.0235
     16 H           3.9098    0.0283   -1.2892 H       1  UNL1        0.0235
     17 H           2.7017    1.3199   -1.3099 H       1  UNL1        0.0235
     18 H           0.7178    1.9716   -0.0081 H       1  UNL1        0.0620
     19 H           0.2935   -2.3230   -0.0076 H       1  UNL1        0.0620
     20 H          -1.7192    2.2109   -0.0053 H       1  UNL1        0.0620
     21 H          -2.1471   -2.0764   -0.0026 H       1  UNL1        0.0620
     22 H          -4.0863   -0.6009    0.5153 H       1  UNL1        0.0278
     23 H          -3.9074    1.1531    0.5169 H       1  UNL1        0.0278
     24 H          -3.9619    0.2739   -1.0319 H       1  UNL1        0.0278
@<TRIPOS>BOND
     1     1     2    1
     2     1     3    1
     3     1     4    1
     4     1    11    1
     5     2     5   ar
     6     2     6   ar
     7     3    12    1
     8     3    13    1
     9     3    14    1
    10     4    15    1
    11     4    16    1
    12     4    17    1
    13     5     8   ar
    14     5    18    1
    15     6     9   ar
    16     6    19    1
    17     7     8   ar
    18     7     9   ar
    19     7    10    1
    20     8    20    1
    21     9    21    1
    22    10    22    1
    23    10    23    1
    24    10    24    1
