@<TRIPOS>MOLECULE
17100
 29 29 0 0 0
SMALL
GASTEIGER

@<TRIPOS>ATOM
      1 O          -2.1875    0.1438   -1.3706 O.3     1  UNL1       -0.3888
      2 C          -0.4905   -0.0244    0.3576 C.3     1  UNL1       -0.0089
      3 C          -2.0130   -0.0020    0.0409 C.3     1  UNL1        0.0636
      4 C           0.2239   -1.2392   -0.2644 C.3     1  UNL1       -0.0437
      5 C           0.2128    1.2732   -0.1043 C.3     1  UNL1       -0.0291
      6 C           1.7027   -1.2882    0.1190 C.3     1  UNL1       -0.0317
      7 C           2.3940    0.0464    0.0389 C.2     1  UNL1       -0.0765
      8 C           1.7116    1.1954   -0.0780 C.2     1  UNL1       -0.0847
      9 C          -2.7093    1.1806    0.7268 C.3     1  UNL1       -0.0361
     10 C          -2.6977   -1.3098    0.4595 C.3     1  UNL1       -0.0361
     11 C           3.8915    0.0121    0.0927 C.3     1  UNL1       -0.0438
     12 H          -0.3739   -0.0985    1.4496 H       1  UNL1        0.0331
     13 H           0.1281   -1.2090   -1.3573 H       1  UNL1        0.0272
     14 H          -0.2325   -2.1776    0.0680 H       1  UNL1        0.0272
     15 H          -0.0901    2.0987    0.5505 H       1  UNL1        0.0311
     16 H          -0.0908    1.5440   -1.1222 H       1  UNL1        0.0311
     17 H           2.2017   -2.0105   -0.5382 H       1  UNL1        0.0310
     18 H           1.7976   -1.6683    1.1442 H       1  UNL1        0.0310
     19 H           2.2411    2.1420   -0.1609 H       1  UNL1        0.0572
     20 H          -2.5323    1.1786    1.8071 H       1  UNL1        0.0257
     21 H          -3.7906    1.1504    0.5547 H       1  UNL1        0.0257
     22 H          -2.3723    2.1382    0.3148 H       1  UNL1        0.0257
     23 H          -2.4101   -2.1380   -0.1982 H       1  UNL1        0.0257
     24 H          -2.4583   -1.5766    1.4936 H       1  UNL1        0.0257
     25 H          -3.7858   -1.2295    0.3671 H       1  UNL1        0.0257
     26 H          -3.1407    0.1493   -1.5596 H       1  UNL1        0.2101
     27 H           4.2235   -0.4520    1.0268 H       1  UNL1        0.0274
     28 H           4.3263    1.0155    0.0426 H       1  UNL1        0.0274
     29 H           4.2866   -0.5678   -0.7471 H       1  UNL1        0.0274
@<TRIPOS>BOND
     1     1     3    1
     2     1    26    1
     3     2     3    1
     4     2     4    1
     5     2     5    1
     6     2    12    1
     7     3     9    1
     8     3    10    1
     9     4     6    1
    10     4    13    1
    11     4    14    1
    12     5     8    1
    13     5    15    1
    14     5    16    1
    15     6     7    1
    16     6    17    1
    17     6    18    1
    18     7     8    2
    19     7    11    1
    20     8    19    1
    21     9    20    1
    22     9    21    1
    23     9    22    1
    24    10    23    1
    25    10    24    1
    26    10    25    1
    27    11    27    1
    28    11    28    1
    29    11    29    1
