@<TRIPOS>MOLECULE
22311
 26 26 0 0 0
SMALL
GASTEIGER

@<TRIPOS>ATOM
      1 C           0.7182   -0.0414   -0.3479 C.3     1  UNL1       -0.0167
      2 C           0.0208   -1.2148    0.3553 C.3     1  UNL1       -0.0426
      3 C           0.0174    1.2937   -0.0252 C.3     1  UNL1       -0.0280
      4 C          -1.4560   -1.3008   -0.0251 C.3     1  UNL1       -0.0315
      5 C          -2.1532    0.0371   -0.0458 C.2     1  UNL1       -0.0765
      6 C          -1.4784    1.1996   -0.0335 C.2     1  UNL1       -0.0845
      7 C           2.1910    0.0079    0.0168 C.2     1  UNL1       -0.0763
      8 C          -3.6506   -0.0049   -0.0805 C.3     1  UNL1       -0.0438
      9 C           3.1636   -0.1692   -1.1120 C.3     1  UNL1       -0.0438
     10 C           2.6044    0.1912    1.2850 C.2     1  UNL1       -0.0994
     11 H           0.6290   -0.2091   -1.4319 H       1  UNL1        0.0348
     12 H           0.0959   -1.1037    1.4451 H       1  UNL1        0.0274
     13 H           0.5174   -2.1610    0.1045 H       1  UNL1        0.0274
     14 H           0.3350    2.0479   -0.7561 H       1  UNL1        0.0313
     15 H           0.3136    1.6734    0.9602 H       1  UNL1        0.0313
     16 H          -1.9516   -1.9691    0.6897 H       1  UNL1        0.0310
     17 H          -1.5505   -1.7599   -1.0165 H       1  UNL1        0.0310
     18 H          -2.0144    2.1462   -0.0244 H       1  UNL1        0.0572
     19 H          -3.9903   -0.5443   -0.9698 H       1  UNL1        0.0274
     20 H          -4.0879    0.9984   -0.1098 H       1  UNL1        0.0274
     21 H          -4.0373   -0.5132    0.8087 H       1  UNL1        0.0274
     22 H           3.0131   -1.1415   -1.5926 H       1  UNL1        0.0274
     23 H           3.0229    0.6169   -1.8607 H       1  UNL1        0.0274
     24 H           4.2021   -0.1230   -0.7674 H       1  UNL1        0.0274
     25 H           3.6554    0.2281    1.5432 H       1  UNL1        0.0534
     26 H           1.8968    0.3188    2.0989 H       1  UNL1        0.0534
@<TRIPOS>BOND
     1     1     2    1
     2     1     3    1
     3     1     7    1
     4     1    11    1
     5     2     4    1
     6     2    12    1
     7     2    13    1
     8     3     6    1
     9     3    14    1
    10     3    15    1
    11     4     5    1
    12     4    16    1
    13     4    17    1
    14     5     6    2
    15     5     8    1
    16     6    18    1
    17     7     9    1
    18     7    10    2
    19     8    19    1
    20     8    20    1
    21     8    21    1
    22     9    22    1
    23     9    23    1
    24     9    24    1
    25    10    25    1
    26    10    26    1
