@<TRIPOS>MOLECULE
5280443
 30 32 0 0 0
SMALL
GASTEIGER

@<TRIPOS>ATOM
      1 O          -0.0792    0.7689   -0.0562 O.2     1  UNL1       -0.4544
      2 O          -4.1612   -1.8641    0.1142 O.3     1  UNL1       -0.5058
      3 O          -1.7492   -2.9248    0.2005 O.2     1  UNL1       -0.2869
      4 O          -4.3017    2.8764   -0.2011 O.3     1  UNL1       -0.5065
      5 O           6.2571    0.6873   -0.0157 O.3     1  UNL1       -0.5068
      6 C          -2.0810   -0.6054    0.0402 C.ar    1  UNL1        0.1055
      7 C          -1.4455    0.6310   -0.0447 C.ar    1  UNL1        0.1462
      8 C           0.7058   -0.3744    0.0285 C.ar    1  UNL1        0.1392
      9 C           2.1646   -0.1179    0.0113 C.ar    1  UNL1        0.0176
     10 C          -1.2484   -1.8076    0.1323 C.ar    1  UNL1        0.1966
     11 C           0.2071   -1.6148    0.1355 C.ar    1  UNL1        0.0288
     12 C          -3.4781   -0.6802    0.0385 C.ar    1  UNL1        0.1347
     13 C          -2.2054    1.7980   -0.1244 C.ar    1  UNL1        0.0231
     14 C          -3.5958    1.7126   -0.1222 C.ar    1  UNL1        0.1239
     15 C          -4.2416    0.4813   -0.0426 C.ar    1  UNL1        0.0223
     16 C           3.0672   -1.0329   -0.5603 C.ar    1  UNL1       -0.0476
     17 C           2.6820    1.0719    0.5485 C.ar    1  UNL1       -0.0476
     18 C           4.4429   -0.7806   -0.5726 C.ar    1  UNL1       -0.0195
     19 C           4.0564    1.3290    0.5325 C.ar    1  UNL1       -0.0195
     20 C           4.9252    0.4001   -0.0236 C.ar    1  UNL1        0.1169
     21 H           0.8077   -2.5102    0.2286 H       1  UNL1        0.0693
     22 H          -1.7213    2.7683   -0.1888 H       1  UNL1        0.0691
     23 H          -5.3246    0.4059   -0.0422 H       1  UNL1        0.0691
     24 H           2.7135   -1.9541   -1.0175 H       1  UNL1        0.0626
     25 H           2.0212    1.8137    0.9930 H       1  UNL1        0.0626
     26 H           5.1117   -1.5111   -1.0166 H       1  UNL1        0.0654
     27 H           4.4450    2.2523    0.9532 H       1  UNL1        0.0654
     28 H          -3.5036   -2.5952    0.1641 H       1  UNL1        0.2922
     29 H          -5.2516    2.6689   -0.1902 H       1  UNL1        0.2921
     30 H           6.7366   -0.0459   -0.4351 H       1  UNL1        0.2921
@<TRIPOS>BOND
     1     1     7   ar
     2     1     8   ar
     3     2    12    1
     4     2    28    1
     5     3    10    2
     6     4    14    1
     7     4    29    1
     8     5    20    1
     9     5    30    1
    10     6     7   ar
    11     6    10   ar
    12     6    12   ar
    13     7    13   ar
    14     8     9    1
    15     8    11   ar
    16     9    16   ar
    17     9    17   ar
    18    10    11   ar
    19    11    21    1
    20    12    15   ar
    21    13    14   ar
    22    13    22    1
    23    14    15   ar
    24    15    23    1
    25    16    18   ar
    26    16    24    1
    27    17    19   ar
    28    17    25    1
    29    18    20   ar
    30    18    26    1
    31    19    20   ar
    32    19    27    1
