@<TRIPOS>MOLECULE
5284421
 55 54 0 0 0
SMALL
GASTEIGER

@<TRIPOS>ATOM
      1 O          -4.7964    1.0283   -0.3204 O.3     1  UNL1       -0.4679
      2 O          -4.0710   -0.7360   -1.5976 O.2     1  UNL1       -0.2509
      3 C          -0.7780   -2.7038    0.6879 C.3     1  UNL1       -0.0530
      4 C           0.6461   -2.1962    0.4546 C.3     1  UNL1       -0.0528
      5 C          -1.7869   -1.5549    0.6666 C.3     1  UNL1       -0.0526
      6 C           1.6445   -3.3571    0.4315 C.3     1  UNL1       -0.0496
      7 C          -3.2175   -2.0709    0.8474 C.3     1  UNL1       -0.0430
      8 C           3.0946   -2.9107    0.2350 C.3     1  UNL1       -0.0348
      9 C          -4.2539   -0.9495    0.8219 C.3     1  UNL1        0.0449
     10 C           1.6997    2.5722   -0.0301 C.3     1  UNL1       -0.0496
     11 C           0.4996    2.6860    0.9129 C.3     1  UNL1       -0.0530
     12 C           3.3266   -2.2173   -1.0810 C.2     1  UNL1       -0.0876
     13 C           3.0150    2.6032    0.7478 C.3     1  UNL1       -0.0348
     14 C          -0.8196    2.7444    0.1433 C.3     1  UNL1       -0.0559
     15 C           3.8276   -0.9790   -1.2256 C.2     1  UNL1       -0.0842
     16 C           4.2312   -0.1071   -0.0735 C.3     1  UNL1       -0.0165
     17 C          -4.3402   -0.2397   -0.5119 C.2     1  UNL1        0.3068
     18 C           4.1957    2.4202   -0.1637 C.2     1  UNL1       -0.0876
     19 C           4.7303    1.2374   -0.5153 C.2     1  UNL1       -0.0842
     20 C          -2.0054    2.9289    1.0777 C.3     1  UNL1       -0.0653
     21 C          -4.9157    1.8027   -1.5129 C.3     1  UNL1        0.0817
     22 H          -1.0368   -3.4320   -0.0902 H       1  UNL1        0.0265
     23 H          -0.8315   -3.2259    1.6509 H       1  UNL1        0.0265
     24 H           0.6800   -1.6503   -0.4962 H       1  UNL1        0.0265
     25 H           0.9190   -1.4848    1.2443 H       1  UNL1        0.0265
     26 H          -1.5489   -0.8388    1.4623 H       1  UNL1        0.0265
     27 H          -1.6988   -1.0192   -0.2853 H       1  UNL1        0.0265
     28 H           1.5805   -3.9035    1.3814 H       1  UNL1        0.0268
     29 H           1.3692   -4.0650   -0.3599 H       1  UNL1        0.0268
     30 H          -3.4472   -2.8112    0.0706 H       1  UNL1        0.0270
     31 H          -3.2921   -2.5875    1.8118 H       1  UNL1        0.0270
     32 H           3.7465   -3.7913    0.2721 H       1  UNL1        0.0307
     33 H           3.3846   -2.2823    1.0838 H       1  UNL1        0.0307
     34 H          -4.0121   -0.2195    1.6005 H       1  UNL1        0.0377
     35 H          -5.2466   -1.3599    1.0315 H       1  UNL1        0.0377
     36 H           1.6862    3.3965   -0.7540 H       1  UNL1        0.0268
     37 H           1.6198    1.6412   -0.6059 H       1  UNL1        0.0268
     38 H           0.4889    1.8266    1.5946 H       1  UNL1        0.0265
     39 H           0.6072    3.5868    1.5279 H       1  UNL1        0.0265
     40 H           3.0625   -2.7778   -1.9764 H       1  UNL1        0.0569
     41 H           3.0112    1.8430    1.5400 H       1  UNL1        0.0307
     42 H           3.1249    3.5614    1.2700 H       1  UNL1        0.0307
     43 H          -0.7960    3.5771   -0.5691 H       1  UNL1        0.0263
     44 H          -0.9571    1.8243   -0.4366 H       1  UNL1        0.0263
     45 H           3.9335   -0.5776   -2.2321 H       1  UNL1        0.0572
     46 H           3.3714   -0.0096    0.5937 H       1  UNL1        0.0350
     47 H           5.0354   -0.5938    0.4925 H       1  UNL1        0.0350
     48 H           4.6449    3.3282   -0.5585 H       1  UNL1        0.0569
     49 H           5.5972    1.2336   -1.1709 H       1  UNL1        0.0572
     50 H          -1.8966    3.8376    1.6785 H       1  UNL1        0.0230
     51 H          -2.9300    3.0190    0.5002 H       1  UNL1        0.0230
     52 H          -2.1096    2.0766    1.7565 H       1  UNL1        0.0230
     53 H          -5.2877    2.7928   -1.2339 H       1  UNL1        0.0661
     54 H          -5.6337    1.3430   -2.1995 H       1  UNL1        0.0661
     55 H          -3.9387    1.9230   -1.9936 H       1  UNL1        0.0661
@<TRIPOS>BOND
     1     1    17    1
     2     1    21    1
     3     2    17    2
     4     3     4    1
     5     3     5    1
     6     3    22    1
     7     3    23    1
     8     4     6    1
     9     4    24    1
    10     4    25    1
    11     5     7    1
    12     5    26    1
    13     5    27    1
    14     6     8    1
    15     6    28    1
    16     6    29    1
    17     7     9    1
    18     7    30    1
    19     7    31    1
    20     8    12    1
    21     8    32    1
    22     8    33    1
    23     9    17    1
    24     9    34    1
    25     9    35    1
    26    10    11    1
    27    10    13    1
    28    10    36    1
    29    10    37    1
    30    11    14    1
    31    11    38    1
    32    11    39    1
    33    12    15    2
    34    12    40    1
    35    13    18    1
    36    13    41    1
    37    13    42    1
    38    14    20    1
    39    14    43    1
    40    14    44    1
    41    15    16    1
    42    15    45    1
    43    16    19    1
    44    16    46    1
    45    16    47    1
    46    18    19    2
    47    18    48    1
    48    19    49    1
    49    20    50    1
    50    20    51    1
    51    20    52    1
    52    21    53    1
    53    21    54    1
    54    21    55    1
