@<TRIPOS>MOLECULE
10466745
 43 44 0 0 0
SMALL
GASTEIGER

@<TRIPOS>ATOM
      1 O           3.6875   -0.7017    0.4273 O.3     1  UNL1       -0.3886
      2 O          -2.2606   -1.6310   -1.3881 O.2     1  UNL1       -0.2974
      3 C          -0.0514   -0.1960    0.0701 C.3     1  UNL1       -0.0230
      4 C           1.2807   -0.8233    0.5006 C.3     1  UNL1       -0.0086
      5 C          -0.1191    1.2846    0.5088 C.3     1  UNL1       -0.0348
      6 C           2.4971   -0.1265   -0.1213 C.3     1  UNL1        0.0664
      7 C          -1.0875   -1.1717    0.6680 C.3     1  UNL1        0.0207
      8 C           1.0504   -2.2977    0.1974 C.3     1  UNL1       -0.0467
      9 C          -0.3589   -2.5335    0.7516 C.3     1  UNL1       -0.0429
     10 C           1.1144    2.0417   -0.0462 C.3     1  UNL1       -0.0471
     11 C           2.4473    1.3602    0.2835 C.3     1  UNL1       -0.0237
     12 C          -1.4604    1.9795    0.1376 C.3     1  UNL1       -0.0436
     13 C           2.6097   -0.2791   -1.6410 C.3     1  UNL1       -0.0358
     14 C          -2.3299   -1.2969   -0.2027 C.2     1  UNL1        0.1336
     15 C          -1.5588    3.3895    0.7313 C.3     1  UNL1       -0.0624
     16 C          -1.7405    2.0442   -1.3676 C.3     1  UNL1       -0.0624
     17 C          -3.6667   -1.0613    0.4493 C.3     1  UNL1       -0.0058
     18 H          -0.1219   -0.2347   -1.0239 H       1  UNL1        0.0314
     19 H           1.3787   -0.7407    1.5955 H       1  UNL1        0.0331
     20 H          -0.0421    1.3038    1.6060 H       1  UNL1        0.0306
     21 H          -1.3802   -0.8587    1.6770 H       1  UNL1        0.0380
     22 H           1.7912   -2.9485    0.6712 H       1  UNL1        0.0269
     23 H           1.0570   -2.4957   -0.8795 H       1  UNL1        0.0269
     24 H          -0.8641   -3.3422    0.2131 H       1  UNL1        0.0272
     25 H          -0.2900   -2.8394    1.8027 H       1  UNL1        0.0272
     26 H           1.1457    3.0568    0.3647 H       1  UNL1        0.0269
     27 H           1.0359    2.1462   -1.1336 H       1  UNL1        0.0269
     28 H           3.2699    1.9090   -0.1925 H       1  UNL1        0.0293
     29 H           2.6315    1.4511    1.3628 H       1  UNL1        0.0293
     30 H          -2.2688    1.4049    0.5992 H       1  UNL1        0.0298
     31 H           1.7370    0.1032   -2.1760 H       1  UNL1        0.0257
     32 H           3.4907    0.2571   -2.0143 H       1  UNL1        0.0257
     33 H           2.7585   -1.3271   -1.9233 H       1  UNL1        0.0257
     34 H           3.6715   -0.5768    1.3912 H       1  UNL1        0.2102
     35 H          -0.8791    4.0895    0.2356 H       1  UNL1        0.0232
     36 H          -2.5751    3.7818    0.6145 H       1  UNL1        0.0232
     37 H          -1.3274    3.3815    1.8013 H       1  UNL1        0.0232
     38 H          -1.0213    2.6848   -1.8875 H       1  UNL1        0.0232
     39 H          -2.7386    2.4563   -1.5519 H       1  UNL1        0.0232
     40 H          -1.7118    1.0575   -1.8344 H       1  UNL1        0.0232
     41 H          -4.0559   -2.0043    0.8388 H       1  UNL1        0.0306
     42 H          -3.5776   -0.3395    1.2651 H       1  UNL1        0.0306
     43 H          -4.3592   -0.6465   -0.2896 H       1  UNL1        0.0306
@<TRIPOS>BOND
     1     1     6    1
     2     1    34    1
     3     2    14    2
     4     3     4    1
     5     3     5    1
     6     3     7    1
     7     3    18    1
     8     4     6    1
     9     4     8    1
    10     4    19    1
    11     5    10    1
    12     5    12    1
    13     5    20    1
    14     6    11    1
    15     6    13    1
    16     7     9    1
    17     7    14    1
    18     7    21    1
    19     8     9    1
    20     8    22    1
    21     8    23    1
    22     9    24    1
    23     9    25    1
    24    10    11    1
    25    10    26    1
    26    10    27    1
    27    11    28    1
    28    11    29    1
    29    12    15    1
    30    12    16    1
    31    12    30    1
    32    13    31    1
    33    13    32    1
    34    13    33    1
    35    14    17    1
    36    15    35    1
    37    15    36    1
    38    15    37    1
    39    16    38    1
    40    16    39    1
    41    16    40    1
    42    17    41    1
    43    17    42    1
    44    17    43    1
