@<TRIPOS>MOLECULE
1742210
 40 42 0 0 0
SMALL
GASTEIGER

@<TRIPOS>ATOM
      1 O           3.0818   -1.2303   -0.4320 O.3     1  UNL1       -0.3650
      2 C          -1.0251   -0.5226   -0.2430 C.3     1  UNL1       -0.0292
      3 C          -2.5906   -0.2653   -0.2103 C.3     1  UNL1       -0.0310
      4 C          -0.8916    0.8553    0.5078 C.3     1  UNL1       -0.0163
      5 C          -2.2440    1.2512   -0.1383 C.3     1  UNL1       -0.0408
      6 C           1.8414   -1.1136    0.2978 C.3     1  UNL1        0.0932
      7 C          -0.5750   -1.8032    0.4834 C.3     1  UNL1       -0.0465
      8 C           2.1033   -0.3586   -0.9941 C.3     1  UNL1        0.0884
      9 C           0.8599   -2.2362    0.1606 C.3     1  UNL1       -0.0213
     10 C           0.2285    1.8219    0.2456 C.2     1  UNL1       -0.0731
     11 C           2.3385    1.1050   -1.0018 C.3     1  UNL1       -0.0202
     12 C          -3.3277   -0.6519   -1.4902 C.3     1  UNL1       -0.0595
     13 C          -3.3540   -0.7747    1.0194 C.3     1  UNL1       -0.0595
     14 C           0.9954    1.8556   -1.0546 C.3     1  UNL1       -0.0293
     15 C           2.0828   -0.5770    1.6777 C.3     1  UNL1       -0.0334
     16 C           0.4840    2.7284    1.2073 C.2     1  UNL1       -0.0992
     17 H          -0.6610   -0.5123   -1.2792 H       1  UNL1        0.0312
     18 H          -1.0006    0.7083    1.5927 H       1  UNL1        0.0349
     19 H          -2.9016    1.8655    0.4855 H       1  UNL1        0.0276
     20 H          -2.1524    1.7380   -1.1175 H       1  UNL1        0.0276
     21 H          -1.2333   -2.6320    0.1947 H       1  UNL1        0.0269
     22 H          -0.6859   -1.6819    1.5671 H       1  UNL1        0.0269
     23 H           1.6476   -0.6939   -1.9187 H       1  UNL1        0.0625
     24 H           1.1456   -3.0627    0.8226 H       1  UNL1        0.0294
     25 H           0.8829   -2.6431   -0.8588 H       1  UNL1        0.0294
     26 H           2.9105    1.3533   -1.9042 H       1  UNL1        0.0294
     27 H           2.9445    1.4410   -0.1543 H       1  UNL1        0.0294
     28 H          -3.3932   -1.7410   -1.5893 H       1  UNL1        0.0235
     29 H          -4.3462   -0.2496   -1.4924 H       1  UNL1        0.0235
     30 H          -2.8179   -0.2684   -2.3820 H       1  UNL1        0.0235
     31 H          -4.3600   -0.3483    1.0590 H       1  UNL1        0.0235
     32 H          -3.4546   -1.8660    0.9899 H       1  UNL1        0.0235
     33 H          -2.8514   -0.5187    1.9585 H       1  UNL1        0.0235
     34 H           0.3722    1.4780   -1.8732 H       1  UNL1        0.0311
     35 H           1.2079    2.9023   -1.3106 H       1  UNL1        0.0311
     36 H           2.4782   -1.3680    2.3243 H       1  UNL1        0.0258
     37 H           2.8023    0.2466    1.6923 H       1  UNL1        0.0258
     38 H           1.1578   -0.2187    2.1362 H       1  UNL1        0.0258
     39 H          -0.0681    2.7508    2.1418 H       1  UNL1        0.0534
     40 H           1.2655    3.4741    1.0895 H       1  UNL1        0.0534
@<TRIPOS>BOND
     1     1     6    1
     2     1     8    1
     3     2     3    1
     4     2     4    1
     5     2     7    1
     6     2    17    1
     7     3     5    1
     8     3    12    1
     9     3    13    1
    10     4     5    1
    11     4    10    1
    12     4    18    1
    13     5    19    1
    14     5    20    1
    15     6     8    1
    16     6     9    1
    17     6    15    1
    18     7     9    1
    19     7    21    1
    20     7    22    1
    21     8    11    1
    22     8    23    1
    23     9    24    1
    24     9    25    1
    25    10    14    1
    26    10    16    2
    27    11    14    1
    28    11    26    1
    29    11    27    1
    30    12    28    1
    31    12    29    1
    32    12    30    1
    33    13    31    1
    34    13    32    1
    35    13    33    1
    36    14    34    1
    37    14    35    1
    38    15    36    1
    39    15    37    1
    40    15    38    1
    41    16    39    1
    42    16    40    1
