@<TRIPOS>MOLECULE
73170
 81 85 0 0 0
SMALL
GASTEIGER

@<TRIPOS>ATOM
      1 O          -6.7576   -1.3980    0.5584 O.3     1  UNL1       -0.3912
      2 C          -0.4491    0.9761   -0.1011 C.3     1  UNL1       -0.0194
      3 C          -1.1493   -0.3866   -0.4706 C.3     1  UNL1       -0.0257
      4 C          -2.7286   -0.3598   -0.6990 C.3     1  UNL1       -0.0250
      5 C           1.0637    0.6417    0.4471 C.3     1  UNL1       -0.0051
      6 C          -3.3679    0.3657    0.5423 C.3     1  UNL1       -0.0278
      7 C          -1.2855    1.7344    0.9679 C.3     1  UNL1       -0.0463
      8 C           1.8087   -0.2666   -0.5600 C.2     1  UNL1       -0.0632
      9 C           3.3502   -0.3183   -0.5715 C.3     1  UNL1       -0.0111
     10 C          -2.7908    1.7885    0.6938 C.3     1  UNL1       -0.0486
     11 C           3.9586    1.1108   -0.4534 C.3     1  UNL1       -0.0253
     12 C          -4.9330    0.2601    0.6813 C.3     1  UNL1       -0.0056
     13 C           1.8475    1.9629    0.7233 C.3     1  UNL1       -0.0429
     14 C          -0.3566   -1.1268   -1.5716 C.3     1  UNL1       -0.0306
     15 C          -3.2435   -1.8309   -0.7154 C.3     1  UNL1       -0.0447
     16 C           3.3711    1.8155    0.7915 C.3     1  UNL1       -0.0463
     17 C          -0.3756    1.9039   -1.3534 C.3     1  UNL1       -0.0585
     18 C           1.1344   -1.0215   -1.4498 C.2     1  UNL1       -0.0836
     19 C           3.9535   -1.3468    0.4523 C.3     1  UNL1       -0.0343
     20 C          -5.3384   -1.2441    0.5895 C.3     1  UNL1        0.0606
     21 C          -3.1303    0.2868   -2.0493 C.3     1  UNL1       -0.0590
     22 C           1.0215   -0.1411    1.7945 C.3     1  UNL1       -0.0553
     23 C          -4.7592   -1.9655   -0.6221 C.3     1  UNL1       -0.0258
     24 C           5.5021    1.0577   -0.3587 C.3     1  UNL1       -0.0468
     25 C           5.5052   -1.3388    0.4081 C.3     1  UNL1       -0.0407
     26 C           6.0331    0.0747    0.6706 C.3     1  UNL1       -0.0497
     27 C           3.6448    1.9378   -1.7284 C.3     1  UNL1       -0.0590
     28 C          -5.7120    1.1176   -0.3353 C.3     1  UNL1       -0.0572
     29 C          -5.3604    0.7729    2.0851 C.3     1  UNL1       -0.0572
     30 C           3.4029   -2.7644    0.2214 C.3     1  UNL1       -0.0616
     31 C           6.1442   -2.2970    1.4205 C.3     1  UNL1       -0.0622
     32 H          -1.0407   -1.0145    0.4244 H       1  UNL1        0.0315
     33 H          -2.9924   -0.1886    1.4197 H       1  UNL1        0.0312
     34 H          -0.9103    2.7584    1.0875 H       1  UNL1        0.0271
     35 H          -1.1837    1.2657    1.9487 H       1  UNL1        0.0271
     36 H           3.6577   -0.6905   -1.5619 H       1  UNL1        0.0354
     37 H          -3.2476    2.3027    1.5448 H       1  UNL1        0.0268
     38 H          -2.9987    2.4147   -0.1773 H       1  UNL1        0.0268
     39 H           1.4999    2.4079    1.6649 H       1  UNL1        0.0274
     40 H           1.6448    2.7205   -0.0345 H       1  UNL1        0.0274
     41 H          -0.6122   -0.7642   -2.5699 H       1  UNL1        0.0310
     42 H          -0.6150   -2.1920   -1.5493 H       1  UNL1        0.0310
     43 H          -2.8061   -2.3840    0.1264 H       1  UNL1        0.0271
     44 H          -2.9091   -2.3409   -1.6264 H       1  UNL1        0.0271
     45 H           3.8098    2.8164    0.8934 H       1  UNL1        0.0271
     46 H           3.6400    1.2801    1.7082 H       1  UNL1        0.0271
     47 H          -0.0311    2.9107   -1.0996 H       1  UNL1        0.0235
     48 H           0.2865    1.5168   -2.1315 H       1  UNL1        0.0235
     49 H          -1.3463    2.0625   -1.8174 H       1  UNL1        0.0235
     50 H           1.6901   -1.6373   -2.1562 H       1  UNL1        0.0572
     51 H           3.6714   -1.0600    1.4679 H       1  UNL1        0.0307
     52 H          -4.9898   -1.7566    1.4960 H       1  UNL1        0.0599
     53 H          -3.2887    1.3640   -1.9799 H       1  UNL1        0.0235
     54 H          -2.3942    0.1182   -2.8366 H       1  UNL1        0.0235
     55 H          -4.0583   -0.1239   -2.4529 H       1  UNL1        0.0235
     56 H           2.0120   -0.2443    2.2403 H       1  UNL1        0.0238
     57 H           0.4393    0.3687    2.5641 H       1  UNL1        0.0238
     58 H           0.6230   -1.1540    1.6839 H       1  UNL1        0.0238
     59 H          -5.2515   -1.6207   -1.5382 H       1  UNL1        0.0290
     60 H          -5.0182   -3.0307   -0.5600 H       1  UNL1        0.0290
     61 H           5.9001    2.0564   -0.1376 H       1  UNL1        0.0271
     62 H           5.9189    0.7755   -1.3354 H       1  UNL1        0.0271
     63 H           5.8308   -1.6511   -0.5936 H       1  UNL1        0.0301
     64 H           7.1292    0.0774    0.6219 H       1  UNL1        0.0268
     65 H           5.7680    0.4012    1.6831 H       1  UNL1        0.0268
     66 H           4.0345    2.9582   -1.6370 H       1  UNL1        0.0235
     67 H           4.1079    1.4851   -2.6132 H       1  UNL1        0.0235
     68 H           2.5763    2.0124   -1.9397 H       1  UNL1        0.0235
     69 H          -5.3456    2.1491   -0.3577 H       1  UNL1        0.0236
     70 H          -5.6666    0.7199   -1.3489 H       1  UNL1        0.0236
     71 H          -6.7763    1.1669   -0.0750 H       1  UNL1        0.0236
     72 H          -4.7771    0.2946    2.8802 H       1  UNL1        0.0236
     73 H          -5.2382    1.8565    2.1841 H       1  UNL1        0.0236
     74 H          -6.4184    0.5598    2.2839 H       1  UNL1        0.0236
     75 H           2.3143   -2.7967    0.3207 H       1  UNL1        0.0233
     76 H           3.6710   -3.1346   -0.7736 H       1  UNL1        0.0233
     77 H           3.7855   -3.4719    0.9626 H       1  UNL1        0.0233
     78 H           7.2323   -2.1705    1.4439 H       1  UNL1        0.0233
     79 H           5.7623   -2.1196    2.4314 H       1  UNL1        0.0233
     80 H           5.9556   -3.3421    1.1581 H       1  UNL1        0.0233
     81 H          -6.9454   -2.3565    0.5595 H       1  UNL1        0.2098
@<TRIPOS>BOND
     1     1    20    1
     2     1    81    1
     3     2     3    1
     4     2     5    1
     5     2     7    1
     6     2    17    1
     7     3     4    1
     8     3    14    1
     9     3    32    1
    10     4     6    1
    11     4    15    1
    12     4    21    1
    13     5     8    1
    14     5    13    1
    15     5    22    1
    16     6    10    1
    17     6    12    1
    18     6    33    1
    19     7    10    1
    20     7    34    1
    21     7    35    1
    22     8     9    1
    23     8    18    2
    24     9    11    1
    25     9    19    1
    26     9    36    1
    27    10    37    1
    28    10    38    1
    29    11    16    1
    30    11    24    1
    31    11    27    1
    32    12    20    1
    33    12    28    1
    34    12    29    1
    35    13    16    1
    36    13    39    1
    37    13    40    1
    38    14    18    1
    39    14    41    1
    40    14    42    1
    41    15    23    1
    42    15    43    1
    43    15    44    1
    44    16    45    1
    45    16    46    1
    46    17    47    1
    47    17    48    1
    48    17    49    1
    49    18    50    1
    50    19    25    1
    51    19    30    1
    52    19    51    1
    53    20    23    1
    54    20    52    1
    55    21    53    1
    56    21    54    1
    57    21    55    1
    58    22    56    1
    59    22    57    1
    60    22    58    1
    61    23    59    1
    62    23    60    1
    63    24    26    1
    64    24    61    1
    65    24    62    1
    66    25    26    1
    67    25    31    1
    68    25    63    1
    69    26    64    1
    70    26    65    1
    71    27    66    1
    72    27    67    1
    73    27    68    1
    74    28    69    1
    75    28    70    1
    76    28    71    1
    77    29    72    1
    78    29    73    1
    79    29    74    1
    80    30    75    1
    81    30    76    1
    82    30    77    1
    83    31    78    1
    84    31    79    1
    85    31    80    1
