@<TRIPOS>MOLECULE
5280961
 30 32 0 0 0
SMALL
GASTEIGER

@<TRIPOS>ATOM
      1 O           1.2046    2.0306   -0.0187 O.2     1  UNL1       -0.4618
      2 O           2.3942   -2.6836    0.0051 O.3     1  UNL1       -0.5058
      3 O          -0.0769   -1.8385   -0.0537 O.2     1  UNL1       -0.2863
      4 O           5.7332    0.6954    0.0366 O.3     1  UNL1       -0.5065
      5 O          -6.2244   -0.2624    0.0664 O.3     1  UNL1       -0.5068
      6 C           1.7234   -0.3437   -0.0115 C.ar    1  UNL1        0.1060
      7 C          -0.6557    0.4770   -0.0196 C.ar    1  UNL1        0.0644
      8 C           2.1084    0.9967   -0.0078 C.ar    1  UNL1        0.1454
      9 C           0.2880   -0.6668   -0.0307 C.ar    1  UNL1        0.2037
     10 C          -2.1078    0.2797   -0.0091 C.ar    1  UNL1       -0.0110
     11 C           2.6981   -1.3484    0.0034 C.ar    1  UNL1        0.1347
     12 C          -0.1328    1.7112   -0.0152 C.ar    1  UNL1        0.1038
     13 C           3.4620    1.3346    0.0084 C.ar    1  UNL1        0.0231
     14 C           4.0509   -1.0171    0.0198 C.ar    1  UNL1        0.0223
     15 C           4.4209    0.3249    0.0216 C.ar    1  UNL1        0.1239
     16 C          -2.8209    0.2047   -1.2134 C.ar    1  UNL1       -0.0504
     17 C          -2.7966    0.1725    1.2061 C.ar    1  UNL1       -0.0504
     18 C          -4.2062    0.0211   -1.2039 C.ar    1  UNL1       -0.0196
     19 C          -4.1809   -0.0103    1.2149 C.ar    1  UNL1       -0.0196
     20 C          -4.8740   -0.0839    0.0121 C.ar    1  UNL1        0.1169
     21 H          -0.7265    2.6179   -0.0066 H       1  UNL1        0.1037
     22 H           3.7706    2.3763    0.0118 H       1  UNL1        0.0691
     23 H           4.7912   -1.8108    0.0312 H       1  UNL1        0.0691
     24 H          -2.3018    0.2789   -2.1665 H       1  UNL1        0.0625
     25 H          -2.2626    0.2208    2.1523 H       1  UNL1        0.0625
     26 H          -4.7403   -0.0420   -2.1466 H       1  UNL1        0.0654
     27 H          -4.7150   -0.1013    2.1567 H       1  UNL1        0.0654
     28 H           1.4133   -2.7738   -0.0070 H       1  UNL1        0.2922
     29 H           6.2856   -0.1046    0.0479 H       1  UNL1        0.2921
     30 H          -6.5669   -0.3187   -0.8407 H       1  UNL1        0.2921
@<TRIPOS>BOND
     1     1     8   ar
     2     1    12   ar
     3     2    11    1
     4     2    28    1
     5     3     9    2
     6     4    15    1
     7     4    29    1
     8     5    20    1
     9     5    30    1
    10     6     8   ar
    11     6     9   ar
    12     6    11   ar
    13     7     9   ar
    14     7    10    1
    15     7    12   ar
    16     8    13   ar
    17    10    16   ar
    18    10    17   ar
    19    11    14   ar
    20    12    21    1
    21    13    15   ar
    22    13    22    1
    23    14    15   ar
    24    14    23    1
    25    16    18   ar
    26    16    24    1
    27    17    19   ar
    28    17    25    1
    29    18    20   ar
    30    18    26    1
    31    19    20   ar
    32    19    27    1
