@<TRIPOS>MOLECULE
261491
 27 28 0 0 0
SMALL
GASTEIGER

@<TRIPOS>ATOM
      1 O          -2.3828    1.6611   -0.0016 O.2     1  UNL1       -0.2971
      2 C           0.7128   -0.1084   -0.4176 C.3     1  UNL1       -0.0165
      3 C          -0.2930   -1.2292   -0.3595 C.3     1  UNL1       -0.0250
      4 C           0.4611   -0.9747   -1.6374 C.3     1  UNL1       -0.0425
      5 C          -1.6823   -0.6702   -0.1600 C.3     1  UNL1        0.0181
      6 C          -0.0191    1.2162   -0.3040 C.3     1  UNL1        0.0123
      7 C           2.0385   -0.2517    0.3014 C.3     1  UNL1       -0.0404
      8 C          -1.4798    0.8423   -0.1421 C.2     1  UNL1        0.1370
      9 C          -2.3054   -1.1352    1.1447 C.3     1  UNL1       -0.0554
     10 C           3.0559    0.7575   -0.2288 C.3     1  UNL1       -0.0621
     11 C           1.8707   -0.1177    1.8157 C.3     1  UNL1       -0.0621
     12 H          -0.0761   -2.1352    0.1903 H       1  UNL1        0.0313
     13 H          -0.0694   -0.5525   -2.4846 H       1  UNL1        0.0274
     14 H           1.2162   -1.6986   -1.9277 H       1  UNL1        0.0274
     15 H          -2.3157   -0.9303   -1.0150 H       1  UNL1        0.0377
     16 H           0.1195    1.8201   -1.2037 H       1  UNL1        0.0347
     17 H           0.2846    1.7857    0.5793 H       1  UNL1        0.0347
     18 H           2.4381   -1.2562    0.1070 H       1  UNL1        0.0301
     19 H          -1.6907   -0.8490    2.0060 H       1  UNL1        0.0236
     20 H          -3.2972   -0.6929    1.2846 H       1  UNL1        0.0236
     21 H          -2.4117   -2.2250    1.1583 H       1  UNL1        0.0236
     22 H           2.7450    1.7883   -0.0264 H       1  UNL1        0.0233
     23 H           4.0338    0.6029    0.2376 H       1  UNL1        0.0233
     24 H           3.1754    0.6571   -1.3133 H       1  UNL1        0.0233
     25 H           1.5897    0.8992    2.1073 H       1  UNL1        0.0233
     26 H           2.8052   -0.3626    2.3293 H       1  UNL1        0.0233
     27 H           1.0917   -0.7931    2.1852 H       1  UNL1        0.0233
@<TRIPOS>BOND
     1     1     8    2
     2     2     3    1
     3     2     4    1
     4     2     6    1
     5     2     7    1
     6     3     4    1
     7     3     5    1
     8     3    12    1
     9     4    13    1
    10     4    14    1
    11     5     8    1
    12     5     9    1
    13     5    15    1
    14     6     8    1
    15     6    16    1
    16     6    17    1
    17     7    10    1
    18     7    11    1
    19     7    18    1
    20     9    19    1
    21     9    20    1
    22     9    21    1
    23    10    22    1
    24    10    23    1
    25    10    24    1
    26    11    25    1
    27    11    26    1
    28    11    27    1
