@<TRIPOS>MOLECULE
26049
 26 27 0 0 0
SMALL
GASTEIGER

@<TRIPOS>ATOM
      1 C          -1.5614   -0.2312    0.2223 C.3     1  UNL1       -0.0281
      2 C          -0.6106   -0.5300   -0.9328 C.3     1  UNL1       -0.0283
      3 C          -0.9146    0.9024   -0.5710 C.3     1  UNL1       -0.0286
      4 C           0.7768   -1.0757   -0.7354 C.3     1  UNL1       -0.0284
      5 C           0.1764    1.7772   -0.0253 C.3     1  UNL1       -0.0309
      6 C          -1.1547   -0.5080    1.6504 C.3     1  UNL1       -0.0593
      7 C          -3.0319   -0.4842   -0.0169 C.3     1  UNL1       -0.0593
      8 C           1.7791   -0.1648   -0.0641 C.2     1  UNL1       -0.0762
      9 C           1.4996    1.1167    0.2378 C.2     1  UNL1       -0.0847
     10 C           3.0971   -0.7938    0.2813 C.3     1  UNL1       -0.0438
     11 H          -1.0498   -0.9266   -1.8441 H       1  UNL1        0.0312
     12 H          -1.5595    1.4670   -1.2377 H       1  UNL1        0.0312
     13 H           1.1793   -1.3405   -1.7220 H       1  UNL1        0.0313
     14 H           0.6972   -2.0118   -0.1700 H       1  UNL1        0.0313
     15 H          -0.1789    2.2437    0.9009 H       1  UNL1        0.0310
     16 H           0.3524    2.5944   -0.7357 H       1  UNL1        0.0310
     17 H          -1.3630   -1.5525    1.9019 H       1  UNL1        0.0235
     18 H          -1.7295    0.1273    2.3324 H       1  UNL1        0.0235
     19 H          -0.0996   -0.3316    1.8626 H       1  UNL1        0.0235
     20 H          -3.6375    0.1574    0.6315 H       1  UNL1        0.0235
     21 H          -3.2771   -1.5285    0.2042 H       1  UNL1        0.0235
     22 H          -3.3217   -0.2837   -1.0538 H       1  UNL1        0.0235
     23 H           2.2465    1.7338    0.7321 H       1  UNL1        0.0572
     24 H           3.6027   -1.1439   -0.6235 H       1  UNL1        0.0274
     25 H           2.9417   -1.6498    0.9474 H       1  UNL1        0.0274
     26 H           3.7657   -0.0947    0.7940 H       1  UNL1        0.0274
@<TRIPOS>BOND
     1     1     2    1
     2     1     3    1
     3     1     6    1
     4     1     7    1
     5     2     3    1
     6     2     4    1
     7     2    11    1
     8     3     5    1
     9     3    12    1
    10     4     8    1
    11     4    13    1
    12     4    14    1
    13     5     9    1
    14     5    15    1
    15     5    16    1
    16     6    17    1
    17     6    18    1
    18     6    19    1
    19     7    20    1
    20     7    21    1
    21     7    22    1
    22     8     9    2
    23     8    10    1
    24     9    23    1
    25    10    24    1
    26    10    25    1
    27    10    26    1
