@<TRIPOS>MOLECULE
5282102
 52 55 0 0 0
SMALL
GASTEIGER

@<TRIPOS>ATOM
      1 O           1.1549    1.9099    0.0049 O.3     1  UNL1       -0.3313
      2 O           0.8852   -0.0163   -1.3448 O.3     1  UNL1       -0.4532
      3 O           5.1846    2.0865   -0.8926 O.3     1  UNL1       -0.3864
      4 O           4.1355    3.5432    1.4056 O.3     1  UNL1       -0.3865
      5 O           3.6901   -0.4192   -1.3199 O.3     1  UNL1       -0.3829
      6 O          -0.1057    3.4277    1.9382 O.3     1  UNL1       -0.3924
      7 O          -1.9949   -1.6183    0.3188 O.2     1  UNL1       -0.4507
      8 O          -1.2050    1.8684   -1.6320 O.2     1  UNL1       -0.2830
      9 O          -3.6541    2.6785   -1.2289 O.3     1  UNL1       -0.5058
     10 O          -6.5031   -0.3053    1.0519 O.3     1  UNL1       -0.5065
     11 O           2.9143   -5.5350    0.6817 O.3     1  UNL1       -0.5068
     12 C           4.0145    1.6905   -0.1528 C.3     1  UNL1        0.1152
     13 C           3.3128    2.9452    0.4029 C.3     1  UNL1        0.1120
     14 C           3.0874    0.8577   -1.0515 C.3     1  UNL1        0.1454
     15 C           1.9473    2.5779    0.9887 C.3     1  UNL1        0.1140
     16 C           1.7178    0.6624   -0.3853 C.3     1  UNL1        0.2311
     17 C           1.1626    3.8214    1.4162 C.3     1  UNL1        0.0731
     18 C          -0.3814   -0.2319   -0.8279 C.ar    1  UNL1        0.2138
     19 C          -0.7391   -1.3551   -0.1899 C.ar    1  UNL1        0.1809
     20 C          -1.4214    0.8151   -1.0424 C.ar    1  UNL1        0.2382
     21 C          -2.7554    0.5411   -0.4946 C.ar    1  UNL1        0.1092
     22 C          -2.9731   -0.6722    0.1569 C.ar    1  UNL1        0.1465
     23 C           0.2154   -2.4471    0.0503 C.ar    1  UNL1        0.0213
     24 C          -3.7997    1.4640   -0.6141 C.ar    1  UNL1        0.1348
     25 C          -4.2281   -0.9744    0.6830 C.ar    1  UNL1        0.0231
     26 C           0.9908   -2.4673    1.2189 C.ar    1  UNL1       -0.0475
     27 C           0.3599   -3.4739   -0.8894 C.ar    1  UNL1       -0.0475
     28 C          -5.0551    1.1684   -0.0904 C.ar    1  UNL1        0.0223
     29 C          -5.2603   -0.0498    0.5524 C.ar    1  UNL1        0.1239
     30 C           1.9119   -3.4930    1.4389 C.ar    1  UNL1       -0.0195
     31 C           1.2710   -4.5070   -0.6626 C.ar    1  UNL1       -0.0195
     32 C           2.0392   -4.5074    0.4963 C.ar    1  UNL1        0.1169
     33 H           4.3880    1.0733    0.6739 H       1  UNL1        0.0648
     34 H           3.2006    3.6669   -0.4162 H       1  UNL1        0.0647
     35 H           2.9700    1.3544   -2.0220 H       1  UNL1        0.0683
     36 H           2.0524    1.9228    1.8640 H       1  UNL1        0.0647
     37 H           1.8353    0.0208    0.4949 H       1  UNL1        0.1084
     38 H           0.9760    4.4836    0.5637 H       1  UNL1        0.0584
     39 H           1.6881    4.3836    2.1924 H       1  UNL1        0.0584
     40 H           4.8998    2.6150   -1.6560 H       1  UNL1        0.2100
     41 H           3.8436    4.4608    1.5417 H       1  UNL1        0.2100
     42 H           3.0492   -0.9326   -1.8473 H       1  UNL1        0.2102
     43 H          -0.5381    2.9282    1.2188 H       1  UNL1        0.2095
     44 H          -4.3841   -1.9242    1.1861 H       1  UNL1        0.0691
     45 H           0.8907   -1.6803    1.9634 H       1  UNL1        0.0626
     46 H          -0.2372   -3.4794   -1.7985 H       1  UNL1        0.0626
     47 H          -5.8681    1.8821   -0.1838 H       1  UNL1        0.0691
     48 H           2.5126   -3.4861    2.3431 H       1  UNL1        0.0654
     49 H           1.3792   -5.3093   -1.3874 H       1  UNL1        0.0654
     50 H          -2.7302    2.7528   -1.5574 H       1  UNL1        0.2922
     51 H          -6.5051   -1.1849    1.4703 H       1  UNL1        0.2921
     52 H           3.3827   -5.3975    1.5220 H       1  UNL1        0.2921
@<TRIPOS>BOND
     1     1    15    1
     2     1    16    1
     3     2    16    1
     4     2    18    1
     5     3    12    1
     6     3    40    1
     7     4    13    1
     8     4    41    1
     9     5    14    1
    10     5    42    1
    11     6    17    1
    12     6    43    1
    13     7    19   ar
    14     7    22   ar
    15     8    20    2
    16     9    24    1
    17     9    50    1
    18    10    29    1
    19    10    51    1
    20    11    32    1
    21    11    52    1
    22    12    13    1
    23    12    14    1
    24    12    33    1
    25    13    15    1
    26    13    34    1
    27    14    16    1
    28    14    35    1
    29    15    17    1
    30    15    36    1
    31    16    37    1
    32    17    38    1
    33    17    39    1
    34    18    19   ar
    35    18    20   ar
    36    19    23    1
    37    20    21   ar
    38    21    22   ar
    39    21    24   ar
    40    22    25   ar
    41    23    26   ar
    42    23    27   ar
    43    24    28   ar
    44    25    29   ar
    45    25    44    1
    46    26    30   ar
    47    26    45    1
    48    27    31   ar
    49    27    46    1
    50    28    29   ar
    51    28    47    1
    52    30    32   ar
    53    30    48    1
    54    31    32   ar
    55    31    49    1
