@<TRIPOS>MOLECULE
10364
 25 25 0 0 0
SMALL
GASTEIGER

@<TRIPOS>ATOM
      1 O          -1.8593    2.0614    0.0002 O.3     1  UNL1       -0.5065
      2 C           2.4198   -0.3016   -0.0001 C.3     1  UNL1       -0.0214
      3 C           0.9030   -0.3117    0.0002 C.ar    1  UNL1       -0.0413
      4 C           2.9751    0.3650    1.2609 C.3     1  UNL1       -0.0586
      5 C           2.9750    0.3651   -1.2609 C.3     1  UNL1       -0.0586
      6 C           0.1611    0.8774    0.0002 C.ar    1  UNL1       -0.0165
      7 C           0.2109   -1.5294    0.0010 C.ar    1  UNL1       -0.0579
      8 C          -1.9289   -0.3658    0.0001 C.ar    1  UNL1       -0.0090
      9 C          -1.2322    0.8466    0.0003 C.ar    1  UNL1        0.1200
     10 C          -1.1876   -1.5555    0.0005 C.ar    1  UNL1       -0.0551
     11 C          -3.4270   -0.4287    0.0005 C.3     1  UNL1       -0.0363
     12 H           2.7763   -1.3402    0.0000 H       1  UNL1        0.0343
     13 H           2.7169    1.4286    1.3099 H       1  UNL1        0.0235
     14 H           4.0672    0.2866    1.2886 H       1  UNL1        0.0235
     15 H           2.5809   -0.1153    2.1635 H       1  UNL1        0.0235
     16 H           2.5808   -0.1153   -2.1634 H       1  UNL1        0.0235
     17 H           4.0672    0.2866   -1.2885 H       1  UNL1        0.0235
     18 H           2.7168    1.4286   -1.3098 H       1  UNL1        0.0235
     19 H           0.6615    1.8428    0.0006 H       1  UNL1        0.0657
     20 H           0.7545   -2.4720    0.0002 H       1  UNL1        0.0620
     21 H          -1.6915   -2.5195   -0.0002 H       1  UNL1        0.0621
     22 H          -3.8240    0.0629    0.8949 H       1  UNL1        0.0279
     23 H          -3.8247    0.0637   -0.8931 H       1  UNL1        0.0279
     24 H          -3.7901   -1.4611    0.0002 H       1  UNL1        0.0279
     25 H          -2.8188    1.9254   -0.0002 H       1  UNL1        0.2921
@<TRIPOS>BOND
     1     1     9    1
     2     1    25    1
     3     2     3    1
     4     2     4    1
     5     2     5    1
     6     2    12    1
     7     3     6   ar
     8     3     7   ar
     9     4    13    1
    10     4    14    1
    11     4    15    1
    12     5    16    1
    13     5    17    1
    14     5    18    1
    15     6     9   ar
    16     6    19    1
    17     7    10   ar
    18     7    20    1
    19     8     9   ar
    20     8    10   ar
    21     8    11    1
    22    10    21    1
    23    11    22    1
    24    11    23    1
    25    11    24    1
