@<TRIPOS>MOLECULE
2355
 24 26 0 0 0
SMALL
GASTEIGER

@<TRIPOS>ATOM
      1 O           2.6744   -1.9201   -0.1337 O.2     1  UNL1       -0.4627
      2 O          -2.1144   -1.3493   -0.1353 O.2     1  UNL1       -0.4219
      3 O           0.9373    2.3916    0.4298 O.3     1  UNL1       -0.4937
      4 O          -4.3770   -0.9860   -0.1251 O.2     1  UNL1       -0.2452
      5 C           1.7961    0.1486    0.1072 C.ar    1  UNL1        0.0625
      6 C          -0.6041    0.5556    0.1326 C.ar    1  UNL1        0.0600
      7 C           0.7136    1.0516    0.1922 C.ar    1  UNL1        0.1414
      8 C           1.5187   -1.2030   -0.0699 C.ar    1  UNL1        0.1418
      9 C          -0.8069   -0.8151   -0.0515 C.ar    1  UNL1        0.1461
     10 C           0.2379   -1.7370   -0.1608 C.ar    1  UNL1        0.0245
     11 C           3.2144    0.2409    0.1647 C.ar    1  UNL1       -0.0126
     12 C          -1.7777    1.4149    0.2568 C.ar    1  UNL1       -0.0408
     13 C           3.6964   -1.0376    0.0118 C.ar    1  UNL1        0.0933
     14 C          -3.0047    0.8944    0.1700 C.ar    1  UNL1        0.0237
     15 C          -3.2378   -0.5418   -0.0409 C.ar    1  UNL1        0.3372
     16 C           1.1151    3.0881   -0.8040 C.3     1  UNL1        0.0788
     17 H           0.0686   -2.7975   -0.2943 H       1  UNL1        0.0692
     18 H           3.8064    1.1348    0.3034 H       1  UNL1        0.0656
     19 H          -1.6352    2.4775    0.4229 H       1  UNL1        0.0628
     20 H           4.6893   -1.4674   -0.0120 H       1  UNL1        0.1030
     21 H          -3.8923    1.5098    0.2546 H       1  UNL1        0.0689
     22 H           1.2391    4.1499   -0.5703 H       1  UNL1        0.0660
     23 H           0.2361    2.9868   -1.4500 H       1  UNL1        0.0660
     24 H           2.0140    2.7474   -1.3277 H       1  UNL1        0.0660
@<TRIPOS>BOND
     1     1     8   ar
     2     1    13   ar
     3     2     9   ar
     4     2    15   ar
     5     3     7    1
     6     3    16    1
     7     4    15    2
     8     5     7   ar
     9     5     8   ar
    10     5    11   ar
    11     6     7   ar
    12     6     9   ar
    13     6    12   ar
    14     8    10   ar
    15     9    10   ar
    16    10    17    1
    17    11    13   ar
    18    11    18    1
    19    12    14   ar
    20    12    19    1
    21    13    20    1
    22    14    15   ar
    23    14    21    1
    24    16    22    1
    25    16    23    1
    26    16    24    1
