@<TRIPOS>MOLECULE
2703
 44 48 0 0 0
SMALL
GASTEIGER

@<TRIPOS>ATOM
      1 O           5.3832   -1.6793   -0.1632 O.3     1  UNL1       -0.4526
      2 O           6.1872    0.5842    0.0045 O.3     1  UNL1       -0.4526
      3 O          -4.1821   -1.8673   -0.1261 O.3     1  UNL1       -0.4907
      4 O          -5.9020    0.3305    0.1426 O.3     1  UNL1       -0.4914
      5 N          -0.0952   -1.4066   -0.1458 N.ar    1  UNL1       -0.1986
      6 C           0.5661   -0.1959   -0.0459 C.ar    1  UNL1        0.2231
      7 C          -0.2820    0.9750    0.0537 C.ar    1  UNL1        0.0548
      8 C           2.0292   -0.0423   -0.0362 C.ar    1  UNL1        0.0576
      9 C          -1.7153    0.8729    0.0658 C.ar    1  UNL1        0.0050
     10 C          -2.2832   -0.4004   -0.0372 C.ar    1  UNL1        0.0915
     11 C           2.5655    1.2859    0.0641 C.ar    1  UNL1       -0.0079
     12 C          -1.4423   -1.4860   -0.1621 C.ar    1  UNL1        0.1829
     13 C           0.3386    2.2314    0.1447 C.ar    1  UNL1       -0.0471
     14 C           3.0307   -1.0632   -0.1155 C.ar    1  UNL1       -0.0021
     15 C           1.7195    2.3815    0.1492 C.ar    1  UNL1       -0.0529
     16 C           3.9502    1.5549    0.0818 C.ar    1  UNL1       -0.0082
     17 C           4.3800   -0.7654   -0.0940 C.ar    1  UNL1        0.1670
     18 C          -3.6825   -0.5909   -0.0015 C.ar    1  UNL1        0.1748
     19 C          -2.6348    1.9574    0.1808 C.ar    1  UNL1       -0.0494
     20 C           4.8336    0.5110    0.0014 C.ar    1  UNL1        0.1668
     21 C           0.5778   -2.7172   -0.2237 C.3     1  UNL1        0.1410
     22 C          -4.5494    0.4959    0.0799 C.ar    1  UNL1        0.1623
     23 C          -4.0245    1.7737    0.1927 C.ar    1  UNL1       -0.0157
     24 C           6.5392   -0.8131   -0.1026 C.3     1  UNL1        0.2332
     25 C          -4.5336   -2.4029    1.1542 C.3     1  UNL1        0.0790
     26 C          -6.4620    0.2616   -1.1701 C.3     1  UNL1        0.0790
     27 H          -1.8675   -2.4829   -0.2669 H       1  UNL1        0.1384
     28 H          -0.2361    3.1527    0.2181 H       1  UNL1        0.0626
     29 H           2.8396   -2.1189   -0.1951 H       1  UNL1        0.0663
     30 H           2.1237    3.3934    0.2244 H       1  UNL1        0.0624
     31 H           4.3398    2.5675    0.1578 H       1  UNL1        0.0661
     32 H          -2.2921    2.9859    0.2698 H       1  UNL1        0.0625
     33 H           1.1505   -2.7502   -1.1524 H       1  UNL1        0.0993
     34 H           1.1563   -2.8554    0.6923 H       1  UNL1        0.0993
     35 H          -0.1487   -3.5346   -0.2635 H       1  UNL1        0.0993
     36 H          -4.6881    2.6279    0.2930 H       1  UNL1        0.0655
     37 H           7.1337   -0.9614   -1.0114 H       1  UNL1        0.1166
     38 H           7.1418   -1.0956    0.7681 H       1  UNL1        0.1166
     39 H          -4.8627   -3.4350    1.0000 H       1  UNL1        0.0660
     40 H          -5.3503   -1.8451    1.6200 H       1  UNL1        0.0660
     41 H          -3.6606   -2.4284    1.8171 H       1  UNL1        0.0660
     42 H          -7.5341    0.0700   -1.0665 H       1  UNL1        0.0660
     43 H          -6.0270   -0.5569   -1.7536 H       1  UNL1        0.0660
     44 H          -6.3355    1.2137   -1.6969 H       1  UNL1        0.0660
@<TRIPOS>UNITY_ATOM_ATTR
5 1
charge 1
@<TRIPOS>BOND
     1     1    17    1
     2     1    24    1
     3     2    20    1
     4     2    24    1
     5     3    18    1
     6     3    25    1
     7     4    22    1
     8     4    26    1
     9     5     6   ar
    10     5    12   ar
    11     5    21    1
    12     6     7   ar
    13     6     8   ar
    14     7     9   ar
    15     7    13   ar
    16     8    11   ar
    17     8    14   ar
    18     9    10   ar
    19     9    19   ar
    20    10    12   ar
    21    10    18   ar
    22    11    15   ar
    23    11    16   ar
    24    12    27    1
    25    13    15   ar
    26    13    28    1
    27    14    17   ar
    28    14    29    1
    29    15    30    1
    30    16    20   ar
    31    16    31    1
    32    17    20   ar
    33    18    22   ar
    34    19    23   ar
    35    19    32    1
    36    21    33    1
    37    21    34    1
    38    21    35    1
    39    22    23   ar
    40    23    36    1
    41    24    37    1
    42    24    38    1
    43    25    39    1
    44    25    40    1
    45    25    41    1
    46    26    42    1
    47    26    43    1
    48    26    44    1
