@<TRIPOS>MOLECULE
323
 17 18 0 0 0
SMALL
GASTEIGER

@<TRIPOS>ATOM
      1 O          -1.0577    1.1298    0.0004 O.2     1  UNL1       -0.4222
      2 O          -3.3195    0.7579   -0.0007 O.2     1  UNL1       -0.2452
      3 C           0.4467   -0.7867   -0.0001 C.ar    1  UNL1        0.0176
      4 C           0.2453    0.5916    0.0002 C.ar    1  UNL1        0.1390
      5 C           1.7541   -1.2784   -0.0003 C.ar    1  UNL1       -0.0511
      6 C          -0.7084   -1.6667    0.0002 C.ar    1  UNL1       -0.0443
      7 C           1.3132    1.4872    0.0001 C.ar    1  UNL1       -0.0186
      8 C           2.8351   -0.3909   -0.0002 C.ar    1  UNL1       -0.0610
      9 C           2.6148    0.9886   -0.0000 C.ar    1  UNL1       -0.0582
     10 C          -1.9416   -1.1476    0.0003 C.ar    1  UNL1        0.0236
     11 C          -2.1815    0.3085   -0.0001 C.ar    1  UNL1        0.3372
     12 H           1.9471   -2.3481   -0.0005 H       1  UNL1        0.0625
     13 H          -0.5569   -2.7397    0.0004 H       1  UNL1        0.0627
     14 H           1.1373    2.5587    0.0003 H       1  UNL1        0.0654
     15 H           3.8517   -0.7760   -0.0003 H       1  UNL1        0.0618
     16 H           3.4592    1.6732    0.0000 H       1  UNL1        0.0619
     17 H          -2.8172   -1.7843    0.0006 H       1  UNL1        0.0689
@<TRIPOS>BOND
     1     1     4   ar
     2     1    11   ar
     3     2    11    2
     4     3     4   ar
     5     3     5   ar
     6     3     6   ar
     7     4     7   ar
     8     5     8   ar
     9     5    12    1
    10     6    10   ar
    11     6    13    1
    12     7     9   ar
    13     7    14    1
    14     8     9   ar
    15     8    15    1
    16     9    16    1
    17    10    11   ar
    18    10    17    1
