@<TRIPOS>MOLECULE
5280805
 73 77 0 0 0
SMALL
GASTEIGER

@<TRIPOS>ATOM
      1 O           0.9585   -0.0933    1.7490 O.3     1  UNL1       -0.3313
      2 O           0.7582    2.5673    0.9991 O.3     1  UNL1       -0.3461
      3 O          -1.3681    3.5653    0.6112 O.3     1  UNL1       -0.3431
      4 O           3.0958    2.1577    3.7402 O.3     1  UNL1       -0.3865
      5 O           4.9330    0.1548    2.8571 O.3     1  UNL1       -0.3864
      6 O           1.2030   -2.3429    1.0471 O.3     1  UNL1       -0.4532
      7 O           3.6894   -2.4845    2.5229 O.3     1  UNL1       -0.3829
      8 O          -0.0872    5.4482   -1.1610 O.3     1  UNL1       -0.3841
      9 O           0.3124    3.6542   -3.1840 O.3     1  UNL1       -0.3864
     10 O          -1.8266    1.7465   -2.5778 O.3     1  UNL1       -0.3866
     11 O          -1.5232   -1.6884   -1.3351 O.2     1  UNL1       -0.4507
     12 O          -1.0951   -2.3407    2.6696 O.2     1  UNL1       -0.2830
     13 O          -3.7116   -1.8194    2.9880 O.3     1  UNL1       -0.5058
     14 O          -6.1417   -0.8653   -1.0117 O.3     1  UNL1       -0.5065
     15 O           3.2774    0.3573   -3.1432 O.3     1  UNL1       -0.5033
     16 O           3.9391   -2.0160   -4.4794 O.3     1  UNL1       -0.5033
     17 C           1.2463    0.9172    2.7109 C.3     1  UNL1        0.1144
     18 C           2.7511    1.1966    2.7304 C.3     1  UNL1        0.1120
     19 C           3.5274   -0.1008    2.9993 C.3     1  UNL1        0.1152
     20 C           3.0928   -1.2504    2.0766 C.3     1  UNL1        0.1454
     21 C           0.4915    4.1665   -0.8211 C.3     1  UNL1        0.1341
     22 C           0.0562    3.7338    0.5921 C.3     1  UNL1        0.1879
     23 C           0.0320    3.1427   -1.8684 C.3     1  UNL1        0.1140
     24 C          -1.4725    2.8481   -1.7369 C.3     1  UNL1        0.1095
     25 C           1.5515   -1.3605    2.0420 C.3     1  UNL1        0.2311
     26 C           0.4280    2.1604    2.3325 C.3     1  UNL1        0.0796
     27 C          -1.8216    2.5320   -0.2741 C.3     1  UNL1        0.0873
     28 C          -3.3288    2.4167   -0.0688 C.3     1  UNL1       -0.0361
     29 C          -0.0753   -2.1454    0.5435 C.ar    1  UNL1        0.2138
     30 C          -0.2921   -1.9432   -0.7673 C.ar    1  UNL1        0.1810
     31 C          -1.2426   -2.1104    1.4734 C.ar    1  UNL1        0.2382
     32 C          -2.5550   -1.7806    0.8730 C.ar    1  UNL1        0.1092
     33 C           0.8132   -1.9464   -1.7363 C.ar    1  UNL1        0.0247
     34 C          -2.6142   -1.5912   -0.5091 C.ar    1  UNL1        0.1465
     35 C          -3.7310   -1.6600    1.6312 C.ar    1  UNL1        0.1348
     36 C          -3.8276   -1.2842   -1.1291 C.ar    1  UNL1        0.0231
     37 C           1.5241   -0.7700   -2.0141 C.ar    1  UNL1       -0.0057
     38 C           1.1946   -3.1387   -2.3683 C.ar    1  UNL1       -0.0473
     39 C          -4.9493   -1.3624    1.0121 C.ar    1  UNL1        0.0223
     40 C          -4.9821   -1.1743   -0.3651 C.ar    1  UNL1        0.1239
     41 C           2.5818   -0.7966   -2.9172 C.ar    1  UNL1        0.1589
     42 C           2.2560   -3.1592   -3.2741 C.ar    1  UNL1       -0.0159
     43 C           2.9369   -1.9827   -3.5556 C.ar    1  UNL1        0.1583
     44 H           0.9068    0.5861    3.7014 H       1  UNL1        0.0647
     45 H           3.0816    1.6116    1.7707 H       1  UNL1        0.0647
     46 H           3.3972   -0.4009    4.0461 H       1  UNL1        0.0648
     47 H           3.4761   -1.0785    1.0640 H       1  UNL1        0.0683
     48 H           1.5798    4.2809   -0.8773 H       1  UNL1        0.0671
     49 H           0.2842    4.5481    1.2902 H       1  UNL1        0.0937
     50 H           0.6007    2.2157   -1.7655 H       1  UNL1        0.0648
     51 H          -2.0321    3.7240   -2.0890 H       1  UNL1        0.0646
     52 H           1.2000   -1.7250    3.0151 H       1  UNL1        0.1084
     53 H          -0.6361    1.8989    2.3695 H       1  UNL1        0.0587
     54 H           0.6152    2.9803    3.0349 H       1  UNL1        0.0587
     55 H          -1.3779    1.5707    0.0154 H       1  UNL1        0.0621
     56 H          -3.5482    2.1489    0.9706 H       1  UNL1        0.0255
     57 H          -3.7751    1.6623   -0.7197 H       1  UNL1        0.0255
     58 H          -3.8224    3.3763   -0.2573 H       1  UNL1        0.0255
     59 H           2.7994    1.8231    4.6052 H       1  UNL1        0.2100
     60 H           5.1048    1.0285    3.2563 H       1  UNL1        0.2100
     61 H           3.3590   -2.6898    3.4118 H       1  UNL1        0.2102
     62 H          -0.9680    5.4816   -0.7414 H       1  UNL1        0.2101
     63 H           0.0567    4.5958   -3.1681 H       1  UNL1        0.2100
     64 H          -2.7837    1.7859   -2.7400 H       1  UNL1        0.2100
     65 H          -3.8646   -1.1263   -2.2034 H       1  UNL1        0.0691
     66 H           1.2685    0.1563   -1.5138 H       1  UNL1        0.0662
     67 H           0.6607   -4.0640   -2.1531 H       1  UNL1        0.0626
     68 H          -5.8553   -1.2722    1.6000 H       1  UNL1        0.0691
     69 H           2.5399   -4.0856   -3.7646 H       1  UNL1        0.0655
     70 H          -4.6105   -1.8032    3.3515 H       1  UNL1        0.2922
     71 H          -6.8791   -0.8801   -0.3788 H       1  UNL1        0.2921
     72 H           4.1974    0.1042   -3.3334 H       1  UNL1        0.2923
     73 H           3.8950   -1.1733   -4.9655 H       1  UNL1        0.2923
@<TRIPOS>BOND
     1     1    17    1
     2     1    25    1
     3     2    22    1
     4     2    26    1
     5     3    22    1
     6     3    27    1
     7     4    18    1
     8     4    59    1
     9     5    19    1
    10     5    60    1
    11     6    25    1
    12     6    29    1
    13     7    20    1
    14     7    61    1
    15     8    21    1
    16     8    62    1
    17     9    23    1
    18     9    63    1
    19    10    24    1
    20    10    64    1
    21    11    30   ar
    22    11    34   ar
    23    12    31    2
    24    13    35    1
    25    13    70    1
    26    14    40    1
    27    14    71    1
    28    15    41    1
    29    15    72    1
    30    16    43    1
    31    16    73    1
    32    17    18    1
    33    17    26    1
    34    17    44    1
    35    18    19    1
    36    18    45    1
    37    19    20    1
    38    19    46    1
    39    20    25    1
    40    20    47    1
    41    21    22    1
    42    21    23    1
    43    21    48    1
    44    22    49    1
    45    23    24    1
    46    23    50    1
    47    24    27    1
    48    24    51    1
    49    25    52    1
    50    26    53    1
    51    26    54    1
    52    27    28    1
    53    27    55    1
    54    28    56    1
    55    28    57    1
    56    28    58    1
    57    29    30   ar
    58    29    31   ar
    59    30    33    1
    60    31    32   ar
    61    32    34   ar
    62    32    35   ar
    63    33    37   ar
    64    33    38   ar
    65    34    36   ar
    66    35    39   ar
    67    36    40   ar
    68    36    65    1
    69    37    41   ar
    70    37    66    1
    71    38    42   ar
    72    38    67    1
    73    39    40   ar
    74    39    68    1
    75    41    43   ar
    76    42    43   ar
    77    42    69    1
