@<TRIPOS>MOLECULE
5281520
 39 39 0 0 0
SMALL
GASTEIGER

@<TRIPOS>ATOM
      1 C          -2.3796   -0.0248   -0.0207 C.3     1  UNL1       -0.0135
      2 C          -1.8226    1.4271   -0.2547 C.3     1  UNL1       -0.0259
      3 C          -1.2901   -1.0357   -0.3910 C.2     1  UNL1       -0.0817
      4 C          -3.6155   -0.2241   -0.9237 C.3     1  UNL1       -0.0561
      5 C          -2.8464   -0.1749    1.4432 C.3     1  UNL1       -0.0561
      6 C          -0.5167    1.6955    0.4641 C.2     1  UNL1       -0.0842
      7 C           0.7007    1.9333   -0.0739 C.2     1  UNL1       -0.0762
      8 C           1.9375    1.9136    0.8179 C.3     1  UNL1       -0.0286
      9 C          -0.6830   -1.9006    0.4470 C.2     1  UNL1       -0.0834
     10 C           2.8148    0.6514    0.6345 C.3     1  UNL1       -0.0308
     11 C           0.6307   -2.5851    0.1575 C.3     1  UNL1       -0.0138
     12 C           1.7411   -1.5683   -0.0997 C.2     1  UNL1       -0.0728
     13 C           2.0094   -0.6124    0.8145 C.2     1  UNL1       -0.0844
     14 C           0.9742    2.1477   -1.5357 C.3     1  UNL1       -0.0438
     15 C           2.3620   -1.6622   -1.4630 C.3     1  UNL1       -0.0435
     16 H          -2.5582    2.1629    0.0935 H       1  UNL1        0.0316
     17 H          -1.7186    1.5965   -1.3317 H       1  UNL1        0.0316
     18 H          -0.8700   -0.9131   -1.3903 H       1  UNL1        0.0575
     19 H          -4.3962    0.5107   -0.6813 H       1  UNL1        0.0238
     20 H          -3.3737   -0.1030   -1.9841 H       1  UNL1        0.0238
     21 H          -4.0521   -1.2203   -0.7906 H       1  UNL1        0.0238
     22 H          -3.6000    0.5754    1.6971 H       1  UNL1        0.0238
     23 H          -3.2884   -1.1635    1.6142 H       1  UNL1        0.0238
     24 H          -2.0190   -0.0590    2.1519 H       1  UNL1        0.0238
     25 H          -0.5740    1.5734    1.5436 H       1  UNL1        0.0572
     26 H           2.5414    2.8077    0.6196 H       1  UNL1        0.0313
     27 H           1.6439    1.9837    1.8738 H       1  UNL1        0.0313
     28 H          -1.0337   -2.0248    1.4671 H       1  UNL1        0.0572
     29 H           3.6171    0.6655    1.3816 H       1  UNL1        0.0310
     30 H           3.3014    0.6942   -0.3430 H       1  UNL1        0.0310
     31 H           0.9146   -3.2128    1.0117 H       1  UNL1        0.0352
     32 H           0.5041   -3.2646   -0.6940 H       1  UNL1        0.0352
     33 H           1.4906   -0.6624    1.7731 H       1  UNL1        0.0572
     34 H           0.0705    2.3423   -2.1186 H       1  UNL1        0.0274
     35 H           1.4714    1.2726   -1.9671 H       1  UNL1        0.0274
     36 H           1.6255    3.0151   -1.6703 H       1  UNL1        0.0274
     37 H           1.6197   -1.4387   -2.2359 H       1  UNL1        0.0274
     38 H           2.7396   -2.6766   -1.6318 H       1  UNL1        0.0274
     39 H           3.2077   -0.9857   -1.6001 H       1  UNL1        0.0274
@<TRIPOS>BOND
     1     1     2    1
     2     1     3    1
     3     1     4    1
     4     1     5    1
     5     2     6    1
     6     2    16    1
     7     2    17    1
     8     3     9    2
     9     3    18    1
    10     4    19    1
    11     4    20    1
    12     4    21    1
    13     5    22    1
    14     5    23    1
    15     5    24    1
    16     6     7    2
    17     6    25    1
    18     7     8    1
    19     7    14    1
    20     8    10    1
    21     8    26    1
    22     8    27    1
    23     9    11    1
    24     9    28    1
    25    10    13    1
    26    10    29    1
    27    10    30    1
    28    11    12    1
    29    11    31    1
    30    11    32    1
    31    12    13    2
    32    12    15    1
    33    13    33    1
    34    14    34    1
    35    14    35    1
    36    14    36    1
    37    15    37    1
    38    15    38    1
    39    15    39    1
