@<TRIPOS>MOLECULE
442009
 50 53 0 0 0
SMALL
GASTEIGER

@<TRIPOS>ATOM
      1 O           0.8472    1.9859    1.4317 O.3     1  UNL1       -0.4559
      2 O           2.0463    0.5822    2.7442 O.2     1  UNL1       -0.2498
      3 O          -0.6735   -2.6861    0.5144 O.3     1  UNL1       -0.5031
      4 O          -3.2518   -2.3793   -0.0594 O.3     1  UNL1       -0.5031
      5 C           1.8152    0.3687   -0.7758 C.3     1  UNL1       -0.0123
      6 C           1.2491   -0.2644    0.5576 C.3     1  UNL1        0.0998
      7 C           3.3319    0.1196   -1.0286 C.3     1  UNL1       -0.0306
      8 C           1.3192    1.8366   -0.9014 C.3     1  UNL1       -0.0068
      9 C           1.9843   -1.5764    0.8981 C.3     1  UNL1       -0.0327
     10 C           3.6050   -1.4163   -1.0412 C.3     1  UNL1       -0.0475
     11 C           0.2139    2.0702    0.1386 C.3     1  UNL1        0.1288
     12 C          -0.2702   -0.3285    0.3123 C.ar    1  UNL1        0.0215
     13 C           2.5319   -2.2635   -0.3479 C.3     1  UNL1       -0.0512
     14 C          -0.8073    0.9539    0.0734 C.ar    1  UNL1        0.0010
     15 C           1.4393    0.7754    1.6984 C.2     1  UNL1        0.3187
     16 C           4.2356    0.7870    0.0288 C.3     1  UNL1       -0.0595
     17 C           3.7404    0.6937   -2.4035 C.3     1  UNL1       -0.0595
     18 C          -1.1209   -1.4211    0.2879 C.ar    1  UNL1        0.1632
     19 C          -2.1676    1.1374   -0.1847 C.ar    1  UNL1       -0.0477
     20 C          -3.0342    0.0321   -0.2237 C.ar    1  UNL1        0.0007
     21 C          -2.4850   -1.2452    0.0049 C.ar    1  UNL1        0.1620
     22 C          -4.5193    0.2384   -0.4760 C.3     1  UNL1       -0.0179
     23 C          -4.7644    0.8311   -1.8670 C.3     1  UNL1       -0.0585
     24 C          -5.1675    1.0934    0.6156 C.3     1  UNL1       -0.0585
     25 H           1.3149   -0.1568   -1.6086 H       1  UNL1        0.0321
     26 H           0.9383    2.0104   -1.9151 H       1  UNL1        0.0307
     27 H           2.1319    2.5488   -0.7277 H       1  UNL1        0.0307
     28 H           1.3579   -2.2588    1.4772 H       1  UNL1        0.0279
     29 H           2.8389   -1.3888    1.5596 H       1  UNL1        0.0279
     30 H           4.5747   -1.6265   -0.5719 H       1  UNL1        0.0271
     31 H           3.6946   -1.7847   -2.0716 H       1  UNL1        0.0271
     32 H          -0.2391    3.0600    0.0360 H       1  UNL1        0.0785
     33 H           2.9549   -3.2392   -0.0827 H       1  UNL1        0.0266
     34 H           1.7214   -2.4650   -1.0584 H       1  UNL1        0.0266
     35 H           4.0522    1.8626    0.1058 H       1  UNL1        0.0235
     36 H           4.1055    0.3542    1.0227 H       1  UNL1        0.0235
     37 H           5.2937    0.6593   -0.2295 H       1  UNL1        0.0235
     38 H           4.7800    0.4405   -2.6421 H       1  UNL1        0.0235
     39 H           3.1096    0.2908   -3.2040 H       1  UNL1        0.0235
     40 H           3.6558    1.7852   -2.4293 H       1  UNL1        0.0235
     41 H          -2.5483    2.1448   -0.3453 H       1  UNL1        0.0626
     42 H          -5.0388   -0.7234   -0.4496 H       1  UNL1        0.0345
     43 H          -0.2202   -2.9673   -0.2958 H       1  UNL1        0.2923
     44 H          -3.8829   -2.2805   -0.7872 H       1  UNL1        0.2923
     45 H          -4.3600    1.8455   -1.9592 H       1  UNL1        0.0235
     46 H          -5.8372    0.8810   -2.0788 H       1  UNL1        0.0235
     47 H          -4.2972    0.2134   -2.6417 H       1  UNL1        0.0235
     48 H          -4.9891    0.6591    1.6061 H       1  UNL1        0.0235
     49 H          -6.2510    1.1475    0.4653 H       1  UNL1        0.0235
     50 H          -4.7810    2.1183    0.6242 H       1  UNL1        0.0235
@<TRIPOS>BOND
     1     1    11    1
     2     1    15    1
     3     2    15    2
     4     3    18    1
     5     3    43    1
     6     4    21    1
     7     4    44    1
     8     5     6    1
     9     5     7    1
    10     5     8    1
    11     5    25    1
    12     6     9    1
    13     6    12    1
    14     6    15    1
    15     7    10    1
    16     7    16    1
    17     7    17    1
    18     8    11    1
    19     8    26    1
    20     8    27    1
    21     9    13    1
    22     9    28    1
    23     9    29    1
    24    10    13    1
    25    10    30    1
    26    10    31    1
    27    11    14    1
    28    11    32    1
    29    12    14   ar
    30    12    18   ar
    31    13    33    1
    32    13    34    1
    33    14    19   ar
    34    16    35    1
    35    16    36    1
    36    16    37    1
    37    17    38    1
    38    17    39    1
    39    17    40    1
    40    18    21   ar
    41    19    20   ar
    42    19    41    1
    43    20    21   ar
    44    20    22    1
    45    22    23    1
    46    22    24    1
    47    22    42    1
    48    23    45    1
    49    23    46    1
    50    23    47    1
    51    24    48    1
    52    24    49    1
    53    24    50    1
