@<TRIPOS>MOLECULE
8815
 23 23 0 0 0
SMALL
GASTEIGER

@<TRIPOS>ATOM
      1 O          -3.1554   -0.1906    0.3617 O.3     1  UNL1       -0.4951
      2 C           0.9454   -0.3018   -0.4449 C.ar    1  UNL1       -0.0434
      3 C           2.4289   -0.3660   -0.7156 C.3     1  UNL1       -0.0097
      4 C           0.2352   -1.4359   -0.0339 C.ar    1  UNL1       -0.0548
      5 C           0.2617    0.9128   -0.5728 C.ar    1  UNL1       -0.0548
      6 C          -1.8170   -0.1423    0.0830 C.ar    1  UNL1        0.1201
      7 C          -1.1367   -1.3531    0.2244 C.ar    1  UNL1       -0.0197
      8 C          -1.1106    0.9917   -0.3145 C.ar    1  UNL1       -0.0197
      9 C           3.2454   -0.0570    0.5074 C.2     1  UNL1       -0.0868
     10 C          -3.8757    1.0289    0.2211 C.3     1  UNL1        0.0788
     11 C           4.0691    0.9931    0.6223 C.2     1  UNL1       -0.1023
     12 H           2.6945   -1.3654   -1.0816 H       1  UNL1        0.0355
     13 H           2.6732    0.3223   -1.5354 H       1  UNL1        0.0355
     14 H           0.7422   -2.3897    0.0892 H       1  UNL1        0.0622
     15 H           0.7963    1.8116   -0.8735 H       1  UNL1        0.0622
     16 H          -1.6788   -2.2410    0.5407 H       1  UNL1        0.0654
     17 H          -1.5907    1.9567   -0.4325 H       1  UNL1        0.0654
     18 H           3.1515   -0.7471    1.3432 H       1  UNL1        0.0570
     19 H          -3.8419    1.3894   -0.8125 H       1  UNL1        0.0660
     20 H          -3.5020    1.7888    0.9168 H       1  UNL1        0.0660
     21 H          -4.9223    0.8350    0.4720 H       1  UNL1        0.0660
     22 H           4.6324    1.1574    1.5359 H       1  UNL1        0.0532
     23 H           4.1954    1.7120   -0.1810 H       1  UNL1        0.0532
@<TRIPOS>BOND
     1     1     6    1
     2     1    10    1
     3     2     3    1
     4     2     4   ar
     5     2     5   ar
     6     3     9    1
     7     3    12    1
     8     3    13    1
     9     4     7   ar
    10     4    14    1
    11     5     8   ar
    12     5    15    1
    13     6     7   ar
    14     6     8   ar
    15     7    16    1
    16     8    17    1
    17     9    11    2
    18     9    18    1
    19    10    19    1
    20    10    20    1
    21    10    21    1
    22    11    22    1
    23    11    23    1
