@<TRIPOS>MOLECULE
643820
 29 28 0 0 0
SMALL
GASTEIGER

@<TRIPOS>ATOM
      1 O           2.2860    2.2969    0.1617 O.3     1  UNL1       -0.3910
      2 C           0.7407   -1.2889   -1.1261 C.3     1  UNL1       -0.0285
      3 C          -0.7869   -1.1703   -1.2546 C.3     1  UNL1       -0.0308
      4 C           1.2703   -1.0215    0.2682 C.2     1  UNL1       -0.0741
      5 C          -1.3012    0.1951   -0.8808 C.2     1  UNL1       -0.0850
      6 C          -2.2347    0.5077    0.0348 C.2     1  UNL1       -0.0796
      7 C           0.7895   -1.9781    1.3312 C.3     1  UNL1       -0.0437
      8 C           2.1183   -0.0217    0.5910 C.2     1  UNL1       -0.0600
      9 C          -2.6185    1.9457    0.2707 C.3     1  UNL1       -0.0440
     10 C          -2.9777   -0.4761    0.8975 C.3     1  UNL1       -0.0440
     11 C           2.7046    1.0223   -0.3022 C.3     1  UNL1        0.0626
     12 H           1.0394   -2.3049   -1.4171 H       1  UNL1        0.0313
     13 H           1.2019   -0.6333   -1.8704 H       1  UNL1        0.0313
     14 H          -1.2581   -1.9700   -0.6782 H       1  UNL1        0.0310
     15 H          -1.0579   -1.3545   -2.3001 H       1  UNL1        0.0310
     16 H          -0.8373    1.0074   -1.4415 H       1  UNL1        0.0572
     17 H           0.9689   -3.0124    1.0194 H       1  UNL1        0.0274
     18 H          -0.2810   -1.8504    1.5118 H       1  UNL1        0.0274
     19 H           1.3019   -1.8285    2.2860 H       1  UNL1        0.0274
     20 H           2.4427    0.0628    1.6279 H       1  UNL1        0.0594
     21 H          -2.4320    2.2225    1.3131 H       1  UNL1        0.0274
     22 H          -2.0527    2.6360   -0.3633 H       1  UNL1        0.0274
     23 H          -3.6821    2.0925    0.0549 H       1  UNL1        0.0274
     24 H          -4.0568   -0.3632    0.7507 H       1  UNL1        0.0274
     25 H          -2.7349   -1.5182    0.6863 H       1  UNL1        0.0274
     26 H          -2.7518   -0.2946    1.9534 H       1  UNL1        0.0274
     27 H           2.4214    0.9320   -1.3507 H       1  UNL1        0.0601
     28 H           3.7977    0.9815   -0.2486 H       1  UNL1        0.0601
     29 H           1.3179    2.3198    0.0670 H       1  UNL1        0.2098
@<TRIPOS>BOND
     1     1    11    1
     2     1    29    1
     3     2     3    1
     4     2     4    1
     5     2    12    1
     6     2    13    1
     7     3     5    1
     8     3    14    1
     9     3    15    1
    10     4     7    1
    11     4     8    2
    12     5     6    2
    13     5    16    1
    14     6     9    1
    15     6    10    1
    16     7    17    1
    17     7    18    1
    18     7    19    1
    19     8    11    1
    20     8    20    1
    21     9    21    1
    22     9    22    1
    23     9    23    1
    24    10    24    1
    25    10    25    1
    26    10    26    1
    27    11    27    1
    28    11    28    1
