@<TRIPOS>MOLECULE
12308714
 67 71 0 0 0
SMALL
GASTEIGER

@<TRIPOS>ATOM
      1 O           0.8802   -1.8498    0.6293 O.3     1  UNL1       -0.4606
      2 O          -4.3246   -2.1786   -1.0931 O.2     1  UNL1       -0.2920
      3 O           5.9289    1.5662    1.4756 O.2     1  UNL1       -0.2921
      4 O          -6.6560    0.3784    1.5247 O.2     1  UNL1       -0.4707
      5 O           1.8173   -3.9248    0.3113 O.2     1  UNL1       -0.2512
      6 C           0.1327   -0.2837   -1.1106 C.3     1  UNL1        0.0304
      7 C           0.6461    0.9766   -0.3153 C.3     1  UNL1       -0.0194
      8 C           2.1951    1.3042   -0.4816 C.3     1  UNL1       -0.0061
      9 C           2.9817   -0.0003   -0.0981 C.3     1  UNL1       -0.0164
     10 C          -2.2250    0.5232   -0.1315 C.3     1  UNL1        0.0039
     11 C           1.0464   -1.5160   -0.7737 C.3     1  UNL1        0.1126
     12 C          -1.3434   -0.5549   -0.7609 C.2     1  UNL1       -0.0497
     13 C          -0.2962    2.2082   -0.4397 C.3     1  UNL1       -0.0477
     14 C           2.5430   -1.1871   -0.9876 C.3     1  UNL1       -0.0103
     15 C          -1.7837    1.8954   -0.6591 C.3     1  UNL1       -0.0426
     16 C           4.5263    0.1514    0.0806 C.3     1  UNL1        0.0311
     17 C          -3.6478    0.1407   -0.6513 C.3     1  UNL1        0.0585
     18 C           0.1423   -0.0547   -2.6468 C.3     1  UNL1       -0.0521
     19 C           2.5493    1.8458   -1.8844 C.3     1  UNL1       -0.0555
     20 C           2.6191    2.3921    0.4962 C.2     1  UNL1       -0.0742
     21 C          -2.0283   -1.6592   -1.0950 C.2     1  UNL1       -0.0181
     22 C          -2.1526    0.4556    1.4116 C.3     1  UNL1       -0.0548
     23 C          -3.4582   -1.3391   -0.9145 C.2     1  UNL1        0.1643
     24 C           4.8315    1.3831    0.9487 C.2     1  UNL1        0.1617
     25 C           3.7920    2.4208    1.1406 C.2     1  UNL1       -0.0221
     26 C           5.0848   -1.0742    0.8503 C.3     1  UNL1       -0.0525
     27 C           5.3102    0.2762   -1.2313 C.3     1  UNL1       -0.0525
     28 C          -4.8199    0.5072    0.2102 C.ar    1  UNL1        0.0017
     29 C           1.4681   -3.0081    1.0399 C.2     1  UNL1        0.3042
     30 C          -5.2722    1.8270    0.5226 C.ar    1  UNL1       -0.0200
     31 C          -5.7212   -0.3300    0.8436 C.ar    1  UNL1        0.0955
     32 C           1.7327   -2.9462    2.5136 C.3     1  UNL1        0.0332
     33 C          -6.3793    1.6902    1.3258 C.ar    1  UNL1        0.0920
     34 H           0.5678    0.6944    0.7437 H       1  UNL1        0.0319
     35 H           2.6386   -0.2432    0.9210 H       1  UNL1        0.0320
     36 H           0.7612   -2.3788   -1.3891 H       1  UNL1        0.0743
     37 H           0.0248    2.8848   -1.2370 H       1  UNL1        0.0269
     38 H          -0.2214    2.7907    0.4877 H       1  UNL1        0.0269
     39 H           2.7525   -1.0037   -2.0434 H       1  UNL1        0.0304
     40 H           3.1352   -2.0698   -0.7335 H       1  UNL1        0.0304
     41 H          -2.3837    2.6942   -0.2067 H       1  UNL1        0.0274
     42 H          -1.9860    1.9595   -1.7365 H       1  UNL1        0.0274
     43 H          -3.8188    0.5898   -1.6415 H       1  UNL1        0.0439
     44 H          -0.3350    0.8891   -2.9280 H       1  UNL1        0.0239
     45 H           1.1421   -0.0501   -3.0778 H       1  UNL1        0.0239
     46 H          -0.3916   -0.8537   -3.1764 H       1  UNL1        0.0239
     47 H           1.7223    2.3882   -2.3489 H       1  UNL1        0.0238
     48 H           3.3870    2.5530   -1.8557 H       1  UNL1        0.0238
     49 H           2.8482    1.0600   -2.5803 H       1  UNL1        0.0238
     50 H           1.9535    3.2395    0.6462 H       1  UNL1        0.0579
     51 H          -1.6979   -2.5616   -1.5779 H       1  UNL1        0.0652
     52 H          -2.5481   -0.4943    1.7903 H       1  UNL1        0.0238
     53 H          -1.1382    0.5442    1.8039 H       1  UNL1        0.0238
     54 H          -2.7294    1.2659    1.8708 H       1  UNL1        0.0238
     55 H           4.0600    3.2377    1.8028 H       1  UNL1        0.0649
     56 H           4.5589   -1.2195    1.8012 H       1  UNL1        0.0239
     57 H           5.0048   -1.9984    0.2711 H       1  UNL1        0.0239
     58 H           6.1466   -0.9476    1.0933 H       1  UNL1        0.0239
     59 H           5.1445    1.2356   -1.7253 H       1  UNL1        0.0239
     60 H           6.3898    0.2180   -1.0466 H       1  UNL1        0.0239
     61 H           5.0597   -0.5254   -1.9323 H       1  UNL1        0.0239
     62 H          -4.8431    2.7668    0.2049 H       1  UNL1        0.0652
     63 H          -5.8343   -1.4049    0.8949 H       1  UNL1        0.1032
     64 H           0.8102   -3.1128    3.0722 H       1  UNL1        0.0342
     65 H           2.1615   -1.9704    2.7655 H       1  UNL1        0.0342
     66 H           2.4727   -3.7040    2.7791 H       1  UNL1        0.0342
     67 H          -7.0502    2.3867    1.8074 H       1  UNL1        0.1029
@<TRIPOS>BOND
     1     1    11    1
     2     1    29    1
     3     2    23    2
     4     3    24    2
     5     4    31   ar
     6     4    33   ar
     7     5    29    2
     8     6     7    1
     9     6    11    1
    10     6    12    1
    11     6    18    1
    12     7     8    1
    13     7    13    1
    14     7    34    1
    15     8     9    1
    16     8    19    1
    17     8    20    1
    18     9    14    1
    19     9    16    1
    20     9    35    1
    21    10    12    1
    22    10    15    1
    23    10    17    1
    24    10    22    1
    25    11    14    1
    26    11    36    1
    27    12    21    2
    28    13    15    1
    29    13    37    1
    30    13    38    1
    31    14    39    1
    32    14    40    1
    33    15    41    1
    34    15    42    1
    35    16    24    1
    36    16    26    1
    37    16    27    1
    38    17    23    1
    39    17    28    1
    40    17    43    1
    41    18    44    1
    42    18    45    1
    43    18    46    1
    44    19    47    1
    45    19    48    1
    46    19    49    1
    47    20    25    2
    48    20    50    1
    49    21    23    1
    50    21    51    1
    51    22    52    1
    52    22    53    1
    53    22    54    1
    54    24    25    1
    55    25    55    1
    56    26    56    1
    57    26    57    1
    58    26    58    1
    59    27    59    1
    60    27    60    1
    61    27    61    1
    62    28    30   ar
    63    28    31   ar
    64    29    32    1
    65    30    33   ar
    66    30    62    1
    67    31    63    1
    68    32    64    1
    69    32    65    1
    70    32    66    1
    71    33    67    1
