@<TRIPOS>MOLECULE
5352470
 40 41 0 0 0
SMALL
GASTEIGER

@<TRIPOS>ATOM
      1 O           0.3211    2.9196    0.1669 O.3     1  UNL1       -0.3650
      2 C          -0.6136    1.8776   -0.1627 C.3     1  UNL1        0.0935
      3 C           0.7451    1.5861    0.4868 C.3     1  UNL1        0.0889
      4 C           1.9505    1.1226   -0.2957 C.3     1  UNL1       -0.0153
      5 C          -1.8623    1.9039    0.6974 C.3     1  UNL1       -0.0181
      6 C           2.3321   -0.3737   -0.0697 C.3     1  UNL1       -0.0144
      7 C          -0.8149    1.7261   -1.6403 C.3     1  UNL1       -0.0333
      8 C          -2.7853    0.6882    0.4830 C.3     1  UNL1       -0.0318
      9 C           3.3765   -0.7721   -1.1325 C.3     1  UNL1       -0.0563
     10 C           2.9819   -0.5338    1.3185 C.3     1  UNL1       -0.0563
     11 C           1.1027   -1.2449   -0.2793 C.2     1  UNL1       -0.0819
     12 C          -2.0653   -0.5937    0.7923 C.2     1  UNL1       -0.0846
     13 C           0.5355   -2.1074    0.5829 C.2     1  UNL1       -0.0834
     14 C          -1.8637   -1.6564   -0.0128 C.2     1  UNL1       -0.0728
     15 C          -0.8397   -2.7112    0.3834 C.3     1  UNL1       -0.0138
     16 C          -2.4931   -1.8528   -1.3646 C.3     1  UNL1       -0.0435
     17 H           0.7999    1.3491    1.5401 H       1  UNL1        0.0625
     18 H           1.7884    1.2904   -1.3663 H       1  UNL1        0.0299
     19 H           2.8017    1.7619   -0.0281 H       1  UNL1        0.0299
     20 H          -2.4269    2.8156    0.4627 H       1  UNL1        0.0297
     21 H          -1.5925    1.9740    1.7587 H       1  UNL1        0.0297
     22 H          -0.8518    0.6677   -1.9122 H       1  UNL1        0.0258
     23 H          -1.7559    2.1891   -1.9556 H       1  UNL1        0.0258
     24 H          -0.0168    2.1973   -2.2197 H       1  UNL1        0.0258
     25 H          -3.1701    0.7064   -0.5379 H       1  UNL1        0.0308
     26 H          -3.6532    0.7765    1.1472 H       1  UNL1        0.0308
     27 H           2.9794   -0.6646   -2.1492 H       1  UNL1        0.0238
     28 H           4.2717   -0.1437   -1.0609 H       1  UNL1        0.0238
     29 H           3.6913   -1.8163   -1.0112 H       1  UNL1        0.0238
     30 H           3.3425   -1.5572    1.4752 H       1  UNL1        0.0238
     31 H           3.8442    0.1341    1.4257 H       1  UNL1        0.0238
     32 H           2.2841   -0.2996    2.1286 H       1  UNL1        0.0238
     33 H           0.5891   -1.0691   -1.2252 H       1  UNL1        0.0574
     34 H          -1.5587   -0.5874    1.7595 H       1  UNL1        0.0572
     35 H           1.0023   -2.3271    1.5407 H       1  UNL1        0.0572
     36 H          -0.7766   -3.5147   -0.3600 H       1  UNL1        0.0352
     37 H          -1.1669   -3.1804    1.3194 H       1  UNL1        0.0352
     38 H          -1.7325   -1.7889   -2.1515 H       1  UNL1        0.0274
     39 H          -3.2713   -1.1210   -1.5899 H       1  UNL1        0.0274
     40 H          -2.9608   -2.8405   -1.4189 H       1  UNL1        0.0274
@<TRIPOS>BOND
     1     1     2    1
     2     1     3    1
     3     2     3    1
     4     2     5    1
     5     2     7    1
     6     3     4    1
     7     3    17    1
     8     4     6    1
     9     4    18    1
    10     4    19    1
    11     5     8    1
    12     5    20    1
    13     5    21    1
    14     6     9    1
    15     6    10    1
    16     6    11    1
    17     7    22    1
    18     7    23    1
    19     7    24    1
    20     8    12    1
    21     8    25    1
    22     8    26    1
    23     9    27    1
    24     9    28    1
    25     9    29    1
    26    10    30    1
    27    10    31    1
    28    10    32    1
    29    11    13    2
    30    11    33    1
    31    12    14    2
    32    12    34    1
    33    13    15    1
    34    13    35    1
    35    14    15    1
    36    14    16    1
    37    15    36    1
    38    15    37    1
    39    16    38    1
    40    16    39    1
    41    16    40    1
