@<TRIPOS>MOLECULE
10168
 29 31 0 0 0
SMALL
GASTEIGER

@<TRIPOS>ATOM
      1 O           1.2191   -3.0306   -0.0012 O.3     1  UNL1       -0.5060
      2 O          -1.3443   -2.4183    0.0008 O.2     1  UNL1       -0.2864
      3 O          -0.2058    2.7854   -0.0024 O.2     1  UNL1       -0.2866
      4 O          -3.8351   -2.0000   -0.0003 O.3     1  UNL1       -0.5060
      5 O           5.3230   -0.3894    0.0005 O.3     1  UNL1       -0.4771
      6 O           4.7850    1.7850   -0.0010 O.2     1  UNL1       -0.2451
      7 C           0.3708   -0.7719   -0.0007 C.ar    1  UNL1        0.0746
      8 C           0.6488    0.5978   -0.0008 C.ar    1  UNL1        0.0374
      9 C          -2.1357   -0.2493   -0.0006 C.ar    1  UNL1        0.0745
     10 C          -1.8545    1.1140    0.0005 C.ar    1  UNL1        0.0366
     11 C          -1.0376   -1.2319   -0.0004 C.2     1  UNL1        0.2015
     12 C          -0.4534    1.5853   -0.0012 C.2     1  UNL1        0.1948
     13 C           1.4388   -1.6833   -0.0011 C.ar    1  UNL1        0.1291
     14 C           1.9797    1.0541   -0.0007 C.ar    1  UNL1       -0.0360
     15 C          -3.4715   -0.6794   -0.0005 C.ar    1  UNL1        0.1283
     16 C           3.0342    0.1329   -0.0011 C.ar    1  UNL1        0.0630
     17 C          -2.9035    2.0444   -0.0002 C.ar    1  UNL1       -0.0500
     18 C           2.7584   -1.2362   -0.0009 C.ar    1  UNL1       -0.0055
     19 C          -4.5136    0.2424   -0.0003 C.ar    1  UNL1       -0.0194
     20 C          -4.2302    1.6067    0.0000 C.ar    1  UNL1       -0.0576
     21 C           4.4357    0.6219   -0.0008 C.2     1  UNL1        0.3369
     22 H           2.1923    2.1235   -0.0007 H       1  UNL1        0.0633
     23 H          -2.6936    3.1129   -0.0002 H       1  UNL1        0.0625
     24 H           3.5732   -1.9548   -0.0010 H       1  UNL1        0.0662
     25 H          -5.5433   -0.1070   -0.0001 H       1  UNL1        0.0654
     26 H          -5.0447    2.3278    0.0004 H       1  UNL1        0.0619
     27 H           2.0572   -3.5208   -0.0008 H       1  UNL1        0.2922
     28 H          -3.0112   -2.5427    0.0004 H       1  UNL1        0.2922
     29 H           6.2009    0.0457    0.0011 H       1  UNL1        0.2954
@<TRIPOS>BOND
     1     1    13    1
     2     1    27    1
     3     2    11    2
     4     3    12    2
     5     4    15    1
     6     4    28    1
     7     5    21    1
     8     5    29    1
     9     6    21    2
    10     7     8   ar
    11     7    11    1
    12     7    13   ar
    13     8    12    1
    14     8    14   ar
    15     9    10   ar
    16     9    11    1
    17     9    15   ar
    18    10    12    1
    19    10    17   ar
    20    13    18   ar
    21    14    16   ar
    22    14    22    1
    23    15    19   ar
    24    16    18   ar
    25    16    21    1
    26    17    20   ar
    27    17    23    1
    28    18    24    1
    29    19    20   ar
    30    19    25    1
    31    20    26    1
