@<TRIPOS>MOLECULE
222284
 80 83 0 0 0
SMALL
GASTEIGER

@<TRIPOS>ATOM
      1 O           8.4444    0.6535   -0.1428 O.3     1  UNL1       -0.3915
      2 C          -0.2741    0.0262    0.1162 C.3     1  UNL1       -0.0259
      3 C           0.6752   -1.1025    0.5804 C.3     1  UNL1       -0.0320
      4 C           2.0697   -1.0215   -0.0500 C.3     1  UNL1       -0.0307
      5 C           2.7158    0.3527    0.2860 C.3     1  UNL1       -0.0285
      6 C          -1.5666   -0.4008    0.8716 C.3     1  UNL1       -0.0328
      7 C           0.3590    1.3475    0.5839 C.3     1  UNL1       -0.0468
      8 C           4.1336    0.5125   -0.3847 C.3     1  UNL1       -0.0078
      9 C          -0.1377   -2.3744    0.3812 C.3     1  UNL1       -0.0492
     10 C           1.7664    1.5412    0.0125 C.3     1  UNL1       -0.0486
     11 C          -1.5801   -1.9472    0.6971 C.3     1  UNL1       -0.0492
     12 C           2.9675   -2.1613    0.4548 C.3     1  UNL1       -0.0311
     13 C          -2.9147    0.2731    0.4793 C.3     1  UNL1       -0.0405
     14 C          -0.5118    0.0436   -1.4141 C.3     1  UNL1       -0.0590
     15 C           4.9588   -0.7683   -0.2094 C.2     1  UNL1       -0.0648
     16 C           4.8672    1.6989    0.3117 C.3     1  UNL1       -0.0413
     17 C           4.4217   -1.9407    0.1780 C.2     1  UNL1       -0.0839
     18 C           4.0110    0.8065   -1.9018 C.3     1  UNL1       -0.0556
     19 C           6.4423   -0.6675   -0.4860 C.3     1  UNL1       -0.0051
     20 C          -4.0620   -0.2942    1.3501 C.3     1  UNL1       -0.0499
     21 C           6.3541    1.8094   -0.0313 C.3     1  UNL1       -0.0258
     22 C           7.0847    0.5052    0.2586 C.3     1  UNL1        0.0590
     23 C          -2.8297    1.7985    0.6055 C.3     1  UNL1       -0.0621
     24 C          -5.4603    0.2963    1.1030 C.3     1  UNL1       -0.0497
     25 C          -6.0154    0.1644   -0.3386 C.3     1  UNL1       -0.0389
     26 C          -7.3514    0.9528   -0.5297 C.3     1  UNL1       -0.0439
     27 C          -6.1304   -1.3302   -0.7307 C.3     1  UNL1       -0.0528
     28 C          -7.1885    2.4536   -0.2549 C.3     1  UNL1       -0.0624
     29 C          -8.5163    0.4057    0.3002 C.3     1  UNL1       -0.0624
     30 C          -6.6559   -1.5820   -2.1373 C.3     1  UNL1       -0.0650
     31 H           0.8177   -1.0025    1.6702 H       1  UNL1        0.0309
     32 H           1.9818   -1.1289   -1.1371 H       1  UNL1        0.0309
     33 H           2.8738    0.3498    1.3775 H       1  UNL1        0.0312
     34 H          -1.4080   -0.2046    1.9440 H       1  UNL1        0.0309
     35 H           0.4117    1.3747    1.6800 H       1  UNL1        0.0271
     36 H          -0.2335    2.2135    0.2841 H       1  UNL1        0.0271
     37 H           0.1924   -3.1804    1.0448 H       1  UNL1        0.0268
     38 H          -0.0645   -2.7434   -0.6481 H       1  UNL1        0.0268
     39 H           1.6747    1.7277   -1.0613 H       1  UNL1        0.0268
     40 H           2.1816    2.4572    0.4475 H       1  UNL1        0.0268
     41 H          -2.2437   -2.2627   -0.1161 H       1  UNL1        0.0268
     42 H          -1.9323   -2.4316    1.6152 H       1  UNL1        0.0268
     43 H           2.6572   -3.0995   -0.0208 H       1  UNL1        0.0310
     44 H           2.8474   -2.2989    1.5364 H       1  UNL1        0.0310
     45 H          -3.1337    0.0293   -0.5672 H       1  UNL1        0.0301
     46 H          -1.1336    0.8960   -1.7058 H       1  UNL1        0.0235
     47 H           0.4157    0.1251   -1.9859 H       1  UNL1        0.0235
     48 H          -1.0212   -0.8590   -1.7669 H       1  UNL1        0.0235
     49 H           4.7823    1.5939    1.4023 H       1  UNL1        0.0274
     50 H           4.3875    2.6498    0.0558 H       1  UNL1        0.0274
     51 H           5.0586   -2.8142    0.3038 H       1  UNL1        0.0572
     52 H           3.4014    0.0563   -2.4116 H       1  UNL1        0.0238
     53 H           3.5648    1.7884   -2.0876 H       1  UNL1        0.0238
     54 H           4.9853    0.8183   -2.4012 H       1  UNL1        0.0238
     55 H           6.9655   -1.5893   -0.2068 H       1  UNL1        0.0335
     56 H           6.6117   -0.5599   -1.5644 H       1  UNL1        0.0335
     57 H          -4.1201   -1.3810    1.2284 H       1  UNL1        0.0268
     58 H          -3.8147   -0.1304    2.4080 H       1  UNL1        0.0268
     59 H           6.4852    2.0934   -1.0827 H       1  UNL1        0.0290
     60 H           6.8055    2.6236    0.5475 H       1  UNL1        0.0290
     61 H           7.0788    0.3146    1.3386 H       1  UNL1        0.0596
     62 H          -2.2291    2.2219   -0.2020 H       1  UNL1        0.0233
     63 H          -2.3935    2.0931    1.5647 H       1  UNL1        0.0233
     64 H          -3.8019    2.2869    0.5133 H       1  UNL1        0.0233
     65 H          -5.4445    1.3462    1.4095 H       1  UNL1        0.0268
     66 H          -6.1498   -0.1966    1.8004 H       1  UNL1        0.0268
     67 H          -5.2920    0.6224   -1.0256 H       1  UNL1        0.0303
     68 H           8.8997   -0.1826    0.0595 H       1  UNL1        0.2098
     69 H          -7.6363    0.8740   -1.5867 H       1  UNL1        0.0298
     70 H          -5.1393   -1.7946   -0.6758 H       1  UNL1        0.0265
     71 H          -6.7602   -1.8643   -0.0100 H       1  UNL1        0.0265
     72 H          -6.3190    2.8585   -0.7821 H       1  UNL1        0.0232
     73 H          -7.0774    2.6670    0.8127 H       1  UNL1        0.0232
     74 H          -8.0719    3.0018   -0.6017 H       1  UNL1        0.0232
     75 H          -9.4287    0.9797    0.1043 H       1  UNL1        0.0232
     76 H          -8.3141    0.4674    1.3741 H       1  UNL1        0.0232
     77 H          -8.7322   -0.6372    0.0516 H       1  UNL1        0.0232
     78 H          -7.7056   -1.2936   -2.2373 H       1  UNL1        0.0230
     79 H          -6.5883   -2.6490   -2.3730 H       1  UNL1        0.0230
     80 H          -6.0677   -1.0342   -2.8802 H       1  UNL1        0.0230
@<TRIPOS>BOND
     1     1    22    1
     2     1    68    1
     3     2     3    1
     4     2     6    1
     5     2     7    1
     6     2    14    1
     7     3     4    1
     8     3     9    1
     9     3    31    1
    10     4     5    1
    11     4    12    1
    12     4    32    1
    13     5     8    1
    14     5    10    1
    15     5    33    1
    16     6    11    1
    17     6    13    1
    18     6    34    1
    19     7    10    1
    20     7    35    1
    21     7    36    1
    22     8    15    1
    23     8    16    1
    24     8    18    1
    25     9    11    1
    26     9    37    1
    27     9    38    1
    28    10    39    1
    29    10    40    1
    30    11    41    1
    31    11    42    1
    32    12    17    1
    33    12    43    1
    34    12    44    1
    35    13    20    1
    36    13    23    1
    37    13    45    1
    38    14    46    1
    39    14    47    1
    40    14    48    1
    41    15    17    2
    42    15    19    1
    43    16    21    1
    44    16    49    1
    45    16    50    1
    46    17    51    1
    47    18    52    1
    48    18    53    1
    49    18    54    1
    50    19    22    1
    51    19    55    1
    52    19    56    1
    53    20    24    1
    54    20    57    1
    55    20    58    1
    56    21    22    1
    57    21    59    1
    58    21    60    1
    59    22    61    1
    60    23    62    1
    61    23    63    1
    62    23    64    1
    63    24    25    1
    64    24    65    1
    65    24    66    1
    66    25    26    1
    67    25    27    1
    68    25    67    1
    69    26    28    1
    70    26    29    1
    71    26    69    1
    72    27    30    1
    73    27    70    1
    74    27    71    1
    75    28    72    1
    76    28    73    1
    77    28    74    1
    78    29    75    1
    79    29    76    1
    80    29    77    1
    81    30    78    1
    82    30    79    1
    83    30    80    1
