@<TRIPOS>MOLECULE
92139
 37 37 0 0 0
SMALL
GASTEIGER

@<TRIPOS>ATOM
      1 C           0.1588    1.9844    0.0489 C.3     1  UNL1       -0.0184
      2 C          -1.2861    1.4917   -0.1735 C.3     1  UNL1       -0.0430
      3 C           1.1872    0.8656    0.0332 C.ar    1  UNL1       -0.0445
      4 C          -1.7769    0.5488    0.9299 C.3     1  UNL1       -0.0340
      5 C           0.5201    3.0475   -0.9971 C.3     1  UNL1       -0.0584
      6 C           2.0015    0.6496    1.1537 C.ar    1  UNL1       -0.0581
      7 C           1.3583    0.0377   -1.0857 C.ar    1  UNL1       -0.0581
      8 C          -3.2129    0.1541    0.7067 C.2     1  UNL1       -0.0853
      9 C           2.9652   -0.3627    1.1533 C.ar    1  UNL1       -0.0586
     10 C           2.3229   -0.9731   -1.0866 C.ar    1  UNL1       -0.0586
     11 C           3.1442   -1.1720    0.0269 C.ar    1  UNL1       -0.0504
     12 C          -3.6566   -0.9183    0.0222 C.2     1  UNL1       -0.0796
     13 C           4.1606   -2.2744    0.0340 C.3     1  UNL1       -0.0397
     14 C          -5.1299   -1.2033   -0.1002 C.3     1  UNL1       -0.0440
     15 C          -2.7705   -1.9043   -0.6894 C.3     1  UNL1       -0.0440
     16 H           0.1917    2.4782    1.0296 H       1  UNL1        0.0346
     17 H          -1.3744    0.9958   -1.1488 H       1  UNL1        0.0274
     18 H          -1.9527    2.3640   -0.2132 H       1  UNL1        0.0274
     19 H          -1.1419   -0.3399    1.0055 H       1  UNL1        0.0308
     20 H          -1.7067    1.0488    1.9041 H       1  UNL1        0.0308
     21 H           0.4480    2.6551   -2.0178 H       1  UNL1        0.0236
     22 H          -0.1556    3.9063   -0.9236 H       1  UNL1        0.0236
     23 H           1.5426    3.4117   -0.8509 H       1  UNL1        0.0236
     24 H           1.8934    1.2697    2.0409 H       1  UNL1        0.0620
     25 H           0.7428    0.1736   -1.9717 H       1  UNL1        0.0620
     26 H          -3.9412    0.8200    1.1676 H       1  UNL1        0.0571
     27 H           3.5793   -0.5109    2.0387 H       1  UNL1        0.0620
     28 H           2.4313   -1.6008   -1.9679 H       1  UNL1        0.0620
     29 H           3.7097   -3.1975    0.4114 H       1  UNL1        0.0278
     30 H           4.5469   -2.4553   -0.9747 H       1  UNL1        0.0278
     31 H           5.0161   -2.0137    0.6662 H       1  UNL1        0.0278
     32 H          -5.4350   -1.1765   -1.1514 H       1  UNL1        0.0274
     33 H          -5.7411   -0.4745    0.4425 H       1  UNL1        0.0274
     34 H          -5.3587   -2.1950    0.3034 H       1  UNL1        0.0274
     35 H          -3.0781   -1.9975   -1.7365 H       1  UNL1        0.0274
     36 H          -2.8468   -2.8886   -0.2173 H       1  UNL1        0.0274
     37 H          -1.7168   -1.6141   -0.6932 H       1  UNL1        0.0274
@<TRIPOS>BOND
     1     1     2    1
     2     1     3    1
     3     1     5    1
     4     1    16    1
     5     2     4    1
     6     2    17    1
     7     2    18    1
     8     3     6   ar
     9     3     7   ar
    10     4     8    1
    11     4    19    1
    12     4    20    1
    13     5    21    1
    14     5    22    1
    15     5    23    1
    16     6     9   ar
    17     6    24    1
    18     7    10   ar
    19     7    25    1
    20     8    12    2
    21     8    26    1
    22     9    11   ar
    23     9    27    1
    24    10    11   ar
    25    10    28    1
    26    11    13    1
    27    12    14    1
    28    12    15    1
    29    13    29    1
    30    13    30    1
    31    13    31    1
    32    14    32    1
    33    14    33    1
    34    14    34    1
    35    15    35    1
    36    15    36    1
    37    15    37    1
