@<TRIPOS>MOLECULE
5280804
 53 56 0 0 0
SMALL
GASTEIGER

@<TRIPOS>ATOM
      1 O           0.8622    2.1215    0.0011 O.3     1  UNL1       -0.3313
      2 O           0.7534    0.2316   -1.4225 O.3     1  UNL1       -0.4532
      3 O           4.8296    2.7561   -0.9799 O.3     1  UNL1       -0.3864
      4 O           3.7015    3.9901    1.4103 O.3     1  UNL1       -0.3865
      5 O           3.5836    0.1405   -1.5141 O.3     1  UNL1       -0.3829
      6 O          -0.5004    3.4093    2.0314 O.3     1  UNL1       -0.3924
      7 O          -1.9050   -1.7365    0.2175 O.2     1  UNL1       -0.4507
      8 O          -1.5337    1.8913   -1.5996 O.2     1  UNL1       -0.2830
      9 O          -4.0387    2.4340   -1.0817 O.3     1  UNL1       -0.5058
     10 O          -6.5012   -0.9309    1.1148 O.3     1  UNL1       -0.5065
     11 O           2.9784   -3.2274    2.2433 O.3     1  UNL1       -0.5033
     12 O           3.4153   -5.1088    0.3251 O.3     1  UNL1       -0.5033
     13 C           3.7239    2.2093   -0.2354 C.3     1  UNL1        0.1152
     14 C           2.9137    3.3575    0.4005 C.3     1  UNL1        0.1120
     15 C           2.8595    1.3284   -1.1522 C.3     1  UNL1        0.1454
     16 C           1.6084    2.8226    0.9997 C.3     1  UNL1        0.1140
     17 C           1.5406    0.9564   -0.4572 C.3     1  UNL1        0.2311
     18 C           0.7098    3.9551    1.5064 C.3     1  UNL1        0.0731
     19 C          -0.4698   -0.1320   -0.8884 C.ar    1  UNL1        0.2138
     20 C          -0.6935   -1.3207   -0.3004 C.ar    1  UNL1        0.1810
     21 C          -1.6191    0.8039   -1.0372 C.ar    1  UNL1        0.2382
     22 C          -2.9026    0.3721   -0.4680 C.ar    1  UNL1        0.1092
     23 C          -2.9763   -0.8856    0.1287 C.ar    1  UNL1        0.1465
     24 C           0.3711   -2.3194   -0.1407 C.ar    1  UNL1        0.0247
     25 C          -4.0391    1.1859   -0.5186 C.ar    1  UNL1        0.1348
     26 C          -4.1795   -1.3400    0.6686 C.ar    1  UNL1        0.0231
     27 C           1.1750   -2.3172    1.0063 C.ar    1  UNL1       -0.0057
     28 C           0.5931   -3.2780   -1.1414 C.ar    1  UNL1       -0.0473
     29 C          -5.2429    0.7381    0.0185 C.ar    1  UNL1        0.0223
     30 C          -5.3041   -0.5227    0.6059 C.ar    1  UNL1        0.1239
     31 C           2.1902   -3.2549    1.1286 C.ar    1  UNL1        0.1589
     32 C           1.6098   -4.2282   -1.0041 C.ar    1  UNL1       -0.0159
     33 C           2.4061   -4.2064    0.1374 C.ar    1  UNL1        0.1583
     34 H           4.1799    1.5947    0.5504 H       1  UNL1        0.0648
     35 H           2.7037    4.1027   -0.3774 H       1  UNL1        0.0647
     36 H           2.6561    1.8603   -2.0892 H       1  UNL1        0.0683
     37 H           1.8047    2.1416    1.8384 H       1  UNL1        0.0647
     38 H           1.7516    0.2938    0.3897 H       1  UNL1        0.1084
     39 H           0.4349    4.6353    0.6929 H       1  UNL1        0.0584
     40 H           1.1930    4.5303    2.3006 H       1  UNL1        0.0584
     41 H           4.4759    3.2811   -1.7163 H       1  UNL1        0.2100
     42 H           3.3330    4.8719    1.5890 H       1  UNL1        0.2100
     43 H           2.9739   -0.4180   -2.0310 H       1  UNL1        0.2102
     44 H          -0.8932    2.8966    1.2989 H       1  UNL1        0.2095
     45 H          -4.2223   -2.3233    1.1273 H       1  UNL1        0.0691
     46 H           1.0251   -1.5897    1.7992 H       1  UNL1        0.0662
     47 H          -0.0303   -3.2923   -2.0331 H       1  UNL1        0.0626
     48 H          -6.1279    1.3670   -0.0217 H       1  UNL1        0.0691
     49 H           1.7611   -4.9646   -1.7845 H       1  UNL1        0.0655
     50 H          -3.1379    2.6161   -1.4322 H       1  UNL1        0.2922
     51 H          -6.4005   -1.8178    1.4986 H       1  UNL1        0.2921
     52 H           3.6201   -3.9546    2.1170 H       1  UNL1        0.2923
     53 H           3.4403   -5.7054   -0.4428 H       1  UNL1        0.2923
@<TRIPOS>BOND
     1     1    16    1
     2     1    17    1
     3     2    17    1
     4     2    19    1
     5     3    13    1
     6     3    41    1
     7     4    14    1
     8     4    42    1
     9     5    15    1
    10     5    43    1
    11     6    18    1
    12     6    44    1
    13     7    20   ar
    14     7    23   ar
    15     8    21    2
    16     9    25    1
    17     9    50    1
    18    10    30    1
    19    10    51    1
    20    11    31    1
    21    11    52    1
    22    12    33    1
    23    12    53    1
    24    13    14    1
    25    13    15    1
    26    13    34    1
    27    14    16    1
    28    14    35    1
    29    15    17    1
    30    15    36    1
    31    16    18    1
    32    16    37    1
    33    17    38    1
    34    18    39    1
    35    18    40    1
    36    19    20   ar
    37    19    21   ar
    38    20    24    1
    39    21    22   ar
    40    22    23   ar
    41    22    25   ar
    42    23    26   ar
    43    24    27   ar
    44    24    28   ar
    45    25    29   ar
    46    26    30   ar
    47    26    45    1
    48    27    31   ar
    49    27    46    1
    50    28    32   ar
    51    28    47    1
    52    29    30   ar
    53    29    48    1
    54    31    33   ar
    55    32    33   ar
    56    32    49    1
