@<TRIPOS>MOLECULE
442495
 27 27 0 0 0
SMALL
GASTEIGER

@<TRIPOS>ATOM
      1 O           0.5239    2.0992   -0.6452 O.2     1  UNL1       -0.2924
      2 C          -2.2531   -0.0941   -0.1980 C.3     1  UNL1       -0.0366
      3 C          -1.5219   -1.4009    0.1176 C.3     1  UNL1       -0.0460
      4 C          -1.4365    1.1000    0.2944 C.3     1  UNL1        0.0127
      5 C          -0.1494   -1.4333   -0.5535 C.3     1  UNL1       -0.0242
      6 C           0.7074   -0.2457   -0.1897 C.2     1  UNL1       -0.0062
      7 C          -0.0204    1.0734   -0.2404 C.2     1  UNL1        0.1594
      8 C          -3.6465   -0.0904    0.4252 C.3     1  UNL1       -0.0620
      9 C           2.0177   -0.3005    0.1437 C.2     1  UNL1       -0.0692
     10 C           2.8186   -1.5794    0.1346 C.3     1  UNL1       -0.0434
     11 C           2.8252    0.9103    0.5493 C.3     1  UNL1       -0.0434
     12 H          -2.3671   -0.0168   -1.2879 H       1  UNL1        0.0302
     13 H          -2.1119   -2.2558   -0.2345 H       1  UNL1        0.0271
     14 H          -1.4066   -1.5187    1.2030 H       1  UNL1        0.0271
     15 H          -1.3847    1.1294    1.3892 H       1  UNL1        0.0348
     16 H          -1.9117    2.0290   -0.0417 H       1  UNL1        0.0348
     17 H          -0.2750   -1.4525   -1.6436 H       1  UNL1        0.0314
     18 H           0.3231   -2.3798   -0.2737 H       1  UNL1        0.0314
     19 H          -3.5957   -0.1756    1.5160 H       1  UNL1        0.0233
     20 H          -4.1780    0.8354    0.1811 H       1  UNL1        0.0233
     21 H          -4.2422   -0.9282    0.0477 H       1  UNL1        0.0233
     22 H           3.8500   -1.3893   -0.1856 H       1  UNL1        0.0274
     23 H           2.8452   -2.0122    1.1392 H       1  UNL1        0.0274
     24 H           2.4226   -2.3245   -0.5604 H       1  UNL1        0.0274
     25 H           3.7189    0.6169    1.1119 H       1  UNL1        0.0274
     26 H           3.1583    1.4604   -0.3358 H       1  UNL1        0.0274
     27 H           2.2575    1.5780    1.2062 H       1  UNL1        0.0274
@<TRIPOS>BOND
     1     1     7    2
     2     2     3    1
     3     2     4    1
     4     2     8    1
     5     2    12    1
     6     3     5    1
     7     3    13    1
     8     3    14    1
     9     4     7    1
    10     4    15    1
    11     4    16    1
    12     5     6    1
    13     5    17    1
    14     5    18    1
    15     6     7    1
    16     6     9    2
    17     8    19    1
    18     8    20    1
    19     8    21    1
    20     9    10    1
    21     9    11    1
    22    10    22    1
    23    10    23    1
    24    10    24    1
    25    11    25    1
    26    11    26    1
    27    11    27    1
