@<TRIPOS>MOLECULE
442343
 42 42 0 0 0
SMALL
GASTEIGER

@<TRIPOS>ATOM
      1 O           0.4222   -2.1384    1.4389 O.3     1  UNL1       -0.3886
      2 C           1.2083   -0.4303   -0.1303 C.3     1  UNL1       -0.0087
      3 C           0.0435   -1.3845    0.2773 C.3     1  UNL1        0.0667
      4 C           1.4681    0.6767    0.9111 C.3     1  UNL1       -0.0436
      5 C           2.5269   -1.1838   -0.4121 C.3     1  UNL1       -0.0291
      6 C          -1.2601   -0.6309    0.6308 C.3     1  UNL1       -0.0206
      7 C           2.5197    1.6744    0.4263 C.3     1  UNL1       -0.0317
      8 C          -0.2288   -2.4283   -0.8175 C.3     1  UNL1       -0.0358
      9 C           3.7173    1.0200   -0.2057 C.2     1  UNL1       -0.0765
     10 C           3.7140   -0.2752   -0.5643 C.2     1  UNL1       -0.0847
     11 C          -1.7700    0.3092   -0.4641 C.3     1  UNL1       -0.0319
     12 C           4.9118    1.9037   -0.4059 C.3     1  UNL1       -0.0438
     13 C          -2.9689    1.0792    0.0096 C.2     1  UNL1       -0.0852
     14 C          -4.2586    0.7324   -0.1705 C.2     1  UNL1       -0.0796
     15 C          -5.3694    1.6099    0.3314 C.3     1  UNL1       -0.0440
     16 C          -4.7037   -0.5340   -0.8483 C.3     1  UNL1       -0.0440
     17 H           0.9244    0.0632   -1.0713 H       1  UNL1        0.0331
     18 H           1.7985    0.2312    1.8576 H       1  UNL1        0.0272
     19 H           0.5581    1.2439    1.1301 H       1  UNL1        0.0272
     20 H           2.4215   -1.7543   -1.3427 H       1  UNL1        0.0311
     21 H           2.7479   -1.9032    0.3842 H       1  UNL1        0.0311
     22 H          -2.0385   -1.3659    0.8798 H       1  UNL1        0.0296
     23 H          -1.1219   -0.0733    1.5674 H       1  UNL1        0.0296
     24 H           2.8321    2.2846    1.2821 H       1  UNL1        0.0310
     25 H           2.0654    2.3550   -0.3049 H       1  UNL1        0.0310
     26 H          -1.1066   -3.0351   -0.5670 H       1  UNL1        0.0257
     27 H          -0.3987   -1.9641   -1.7939 H       1  UNL1        0.0257
     28 H           0.6014   -3.1370   -0.9089 H       1  UNL1        0.0257
     29 H           4.6043   -0.7227   -1.0006 H       1  UNL1        0.0572
     30 H          -1.9928   -0.2452   -1.3802 H       1  UNL1        0.0308
     31 H          -1.0093    1.0459   -0.7413 H       1  UNL1        0.0308
     32 H           0.4934   -1.5240    2.1933 H       1  UNL1        0.2102
     33 H           5.7401    1.3725   -0.8853 H       1  UNL1        0.0274
     34 H           5.2673    2.2812    0.5582 H       1  UNL1        0.0274
     35 H           4.6480    2.7569   -1.0390 H       1  UNL1        0.0274
     36 H          -2.7390    2.0085    0.5322 H       1  UNL1        0.0571
     37 H          -5.9669    1.0734    1.0760 H       1  UNL1        0.0274
     38 H          -4.9983    2.5271    0.8005 H       1  UNL1        0.0274
     39 H          -6.0240    1.9019   -0.4966 H       1  UNL1        0.0274
     40 H          -3.8891   -1.2449   -1.0087 H       1  UNL1        0.0274
     41 H          -5.1485   -0.3020   -1.8197 H       1  UNL1        0.0274
     42 H          -5.4495   -1.0473   -0.2328 H       1  UNL1        0.0274
@<TRIPOS>BOND
     1     1     3    1
     2     1    32    1
     3     2     3    1
     4     2     4    1
     5     2     5    1
     6     2    17    1
     7     3     6    1
     8     3     8    1
     9     4     7    1
    10     4    18    1
    11     4    19    1
    12     5    10    1
    13     5    20    1
    14     5    21    1
    15     6    11    1
    16     6    22    1
    17     6    23    1
    18     7     9    1
    19     7    24    1
    20     7    25    1
    21     8    26    1
    22     8    27    1
    23     8    28    1
    24     9    10    2
    25     9    12    1
    26    10    29    1
    27    11    13    1
    28    11    30    1
    29    11    31    1
    30    12    33    1
    31    12    34    1
    32    12    35    1
    33    13    14    2
    34    13    36    1
    35    14    15    1
    36    14    16    1
    37    15    37    1
    38    15    38    1
    39    15    39    1
    40    16    40    1
    41    16    41    1
    42    16    42    1
