@<TRIPOS>MOLECULE
370
 18 18 0 0 0
SMALL
GASTEIGER

@<TRIPOS>ATOM
      1 O           3.1130   -0.0440   -0.0007 O.3     1  UNL1       -0.5009
      2 O           1.8067    2.3498   -0.0003 O.3     1  UNL1       -0.5032
      3 O           1.7115   -2.3988   -0.0003 O.3     1  UNL1       -0.5032
      4 O          -3.0712   -1.1712   -0.0003 O.3     1  UNL1       -0.4771
      5 O          -3.1940    1.0653   -0.0017 O.2     1  UNL1       -0.2451
      6 C          -1.0348    0.0072   -0.0002 C.ar    1  UNL1        0.0660
      7 C           1.7449   -0.0111   -0.0003 C.ar    1  UNL1        0.2006
      8 C           1.0624    1.2018   -0.0002 C.ar    1  UNL1        0.1628
      9 C           1.0419   -1.2087   -0.0001 C.ar    1  UNL1        0.1628
     10 C          -0.3278    1.2232   -0.0002 C.ar    1  UNL1       -0.0023
     11 C          -0.3438   -1.2127    0.0000 C.ar    1  UNL1       -0.0023
     12 C          -2.5174    0.0539   -0.0007 C.2     1  UNL1        0.3370
     13 H          -0.8741    2.1641   -0.0002 H       1  UNL1        0.0663
     14 H          -0.8729   -2.1621    0.0002 H       1  UNL1        0.0663
     15 H           3.3790    0.8986   -0.0008 H       1  UNL1        0.2924
     16 H           1.1990    3.1103   -0.0004 H       1  UNL1        0.2923
     17 H           2.6587   -2.1536   -0.0007 H       1  UNL1        0.2923
     18 H          -4.0357   -1.0096   -0.0010 H       1  UNL1        0.2954
@<TRIPOS>BOND
     1     1     7    1
     2     1    15    1
     3     2     8    1
     4     2    16    1
     5     3     9    1
     6     3    17    1
     7     4    12    1
     8     4    18    1
     9     5    12    2
    10     6    10   ar
    11     6    11   ar
    12     6    12    1
    13     7     8   ar
    14     7     9   ar
    15     8    10   ar
    16     9    11   ar
    17    10    13    1
    18    11    14    1
