@<TRIPOS>MOLECULE
6451618
 26 27 0 0 0
SMALL
GASTEIGER

@<TRIPOS>ATOM
      1 C           0.4979    0.3028    0.2364 C.3     1  UNL1       -0.0164
      2 C          -0.7343    0.7577   -0.5383 C.3     1  UNL1       -0.0134
      3 C          -0.0865    1.6883    0.4468 C.3     1  UNL1       -0.0393
      4 C           0.0430   -0.8413    1.1477 C.3     1  UNL1       -0.0280
      5 C           1.8381    0.1814   -0.4648 C.3     1  UNL1       -0.0402
      6 C          -1.8138   -0.1463   -0.0984 C.2     1  UNL1       -0.0729
      7 C          -1.4175   -1.0405    0.8251 C.2     1  UNL1       -0.0842
      8 C           2.9785    0.0750    0.5477 C.3     1  UNL1       -0.0621
      9 C           1.8697   -0.9919   -1.4445 C.3     1  UNL1       -0.0621
     10 C          -3.1840   -0.0247   -0.6646 C.3     1  UNL1       -0.0435
     11 H          -0.6446    0.9566   -1.5995 H       1  UNL1        0.0351
     12 H           0.4447    2.5468    0.0494 H       1  UNL1        0.0277
     13 H          -0.6017    1.9011    1.3770 H       1  UNL1        0.0277
     14 H           0.1743   -0.5683    2.2003 H       1  UNL1        0.0313
     15 H           0.5884   -1.7684    0.9557 H       1  UNL1        0.0313
     16 H           2.0086    1.0940   -1.0522 H       1  UNL1        0.0301
     17 H          -2.0374   -1.7954    1.2841 H       1  UNL1        0.0572
     18 H           2.9056   -0.8406    1.1441 H       1  UNL1        0.0233
     19 H           3.9489    0.0681    0.0402 H       1  UNL1        0.0233
     20 H           2.9644    0.9233    1.2407 H       1  UNL1        0.0233
     21 H           1.8026   -1.9560   -0.9308 H       1  UNL1        0.0233
     22 H           2.8003   -0.9876   -2.0215 H       1  UNL1        0.0233
     23 H           1.0359   -0.9359   -2.1531 H       1  UNL1        0.0233
     24 H          -3.5964    0.9677   -0.4549 H       1  UNL1        0.0274
     25 H          -3.8641   -0.7694   -0.2388 H       1  UNL1        0.0274
     26 H          -3.1634   -0.1691   -1.7497 H       1  UNL1        0.0274
@<TRIPOS>BOND
     1     1     2    1
     2     1     3    1
     3     1     4    1
     4     1     5    1
     5     2     3    1
     6     2     6    1
     7     2    11    1
     8     3    12    1
     9     3    13    1
    10     4     7    1
    11     4    14    1
    12     4    15    1
    13     5     8    1
    14     5     9    1
    15     5    16    1
    16     6     7    2
    17     6    10    1
    18     7    17    1
    19     8    18    1
    20     8    19    1
    21     8    20    1
    22     9    21    1
    23     9    22    1
    24     9    23    1
    25    10    24    1
    26    10    25    1
    27    10    26    1
