@<TRIPOS>MOLECULE
7794
 29 28 0 0 0
SMALL
GASTEIGER

@<TRIPOS>ATOM
      1 O           4.8287    0.4840    0.3682 O.2     1  UNL1       -0.3010
      2 C           1.4484   -0.2210   -0.3172 C.3     1  UNL1       -0.0372
      3 C           0.0622   -0.1074    0.3522 C.3     1  UNL1       -0.0466
      4 C          -1.0389   -0.9075   -0.3489 C.3     1  UNL1       -0.0343
      5 C           2.4307    0.7032    0.4224 C.3     1  UNL1        0.0054
      6 C           1.9558   -1.6670   -0.3291 C.3     1  UNL1       -0.0620
      7 C          -2.3683   -0.7034    0.3245 C.2     1  UNL1       -0.0853
      8 C          -3.3002    0.2189    0.0145 C.2     1  UNL1       -0.0796
      9 C           3.7892    0.7362   -0.2310 C.2     1  UNL1        0.1206
     10 C          -4.6041    0.2827    0.7647 C.3     1  UNL1       -0.0440
     11 C          -3.1445    1.2621   -1.0574 C.3     1  UNL1       -0.0440
     12 H           1.3665    0.1167   -1.3589 H       1  UNL1        0.0302
     13 H           0.1341   -0.4277    1.3999 H       1  UNL1        0.0271
     14 H          -0.2291    0.9520    0.3722 H       1  UNL1        0.0271
     15 H          -1.0883   -0.6448   -1.4111 H       1  UNL1        0.0307
     16 H          -0.8163   -1.9802   -0.3137 H       1  UNL1        0.0307
     17 H           2.5488    0.3923    1.4668 H       1  UNL1        0.0341
     18 H           2.0554    1.7333    0.4208 H       1  UNL1        0.0341
     19 H           1.3056   -2.3114   -0.9284 H       1  UNL1        0.0233
     20 H           2.9554   -1.7361   -0.7691 H       1  UNL1        0.0233
     21 H           2.0034   -2.0777    0.6850 H       1  UNL1        0.0233
     22 H          -2.5731   -1.4000    1.1377 H       1  UNL1        0.0571
     23 H           3.8062    1.0404   -1.2911 H       1  UNL1        0.1026
     24 H          -4.6856   -0.5009    1.5255 H       1  UNL1        0.0274
     25 H          -4.7035    1.2489    1.2707 H       1  UNL1        0.0274
     26 H          -5.4450    0.1633    0.0738 H       1  UNL1        0.0274
     27 H          -3.3409    2.2572   -0.6446 H       1  UNL1        0.0274
     28 H          -3.8544    1.0769   -1.8689 H       1  UNL1        0.0274
     29 H          -2.1399    1.2904   -1.4879 H       1  UNL1        0.0274
@<TRIPOS>BOND
     1     1     9    2
     2     2     3    1
     3     2     5    1
     4     2     6    1
     5     2    12    1
     6     3     4    1
     7     3    13    1
     8     3    14    1
     9     4     7    1
    10     4    15    1
    11     4    16    1
    12     5     9    1
    13     5    17    1
    14     5    18    1
    15     6    19    1
    16     6    20    1
    17     6    21    1
    18     7     8    2
    19     7    22    1
    20     8    10    1
    21     8    11    1
    22     9    23    1
    23    10    24    1
    24    10    25    1
    25    10    26    1
    26    11    27    1
    27    11    28    1
    28    11    29    1
