@<TRIPOS>MOLECULE
159969
 82 83 0 0 0
SMALL
GASTEIGER

@<TRIPOS>ATOM
      1 O          -0.6116    1.6463    1.7203 O.3     1  UNL1       -0.5060
      2 O           1.9351   -0.0966    2.4925 O.3     1  UNL1       -0.5060
      3 O          -2.5051   -2.2853   -0.3449 O.3     1  UNL1       -0.5055
      4 O          -0.0778   -2.6252   -1.0457 O.3     1  UNL1       -0.5055
      5 O          -4.2016    2.0629   -1.3882 O.3     1  UNL1       -0.4939
      6 O           4.5721   -1.5084   -1.2220 O.3     1  UNL1       -0.5055
      7 O          -4.9388   -1.7236   -1.4083 O.2     1  UNL1       -0.2921
      8 O           2.8125   -2.0953   -3.4115 O.2     1  UNL1       -0.2921
      9 C          -0.4977   -1.2552    1.4763 C.3     1  UNL1        0.0234
     10 C          -1.0096   -2.6256    1.9980 C.3     1  UNL1       -0.0394
     11 C          -2.3755   -2.5571    2.7244 C.3     1  UNL1       -0.0459
     12 C          -1.4895   -0.3811    0.7026 C.ar    1  UNL1        0.0442
     13 C           0.8569   -1.3738    0.7640 C.ar    1  UNL1        0.0442
     14 C          -1.4937    1.0241    0.8695 C.ar    1  UNL1        0.1310
     15 C           2.0142   -0.7768    1.3047 C.ar    1  UNL1        0.1310
     16 C          -2.4494   -0.9249   -0.1716 C.ar    1  UNL1        0.1381
     17 C           0.9992   -2.0079   -0.4817 C.ar    1  UNL1        0.1381
     18 C          -2.3059   -1.7175    3.9975 C.3     1  UNL1       -0.0626
     19 C          -2.8897   -3.9635    3.0190 C.3     1  UNL1       -0.0626
     20 C          -2.4220    1.8536    0.2073 C.ar    1  UNL1        0.0405
     21 C           3.2613   -0.8127    0.6503 C.ar    1  UNL1        0.0403
     22 C          -3.3471   -0.1139   -0.8714 C.ar    1  UNL1        0.1008
     23 C           2.2220   -2.0431   -1.1590 C.ar    1  UNL1        0.1005
     24 C          -3.3460    1.2660   -0.6748 C.ar    1  UNL1        0.1410
     25 C           3.3519   -1.4460   -0.5922 C.ar    1  UNL1        0.1378
     26 C          -2.4113    3.3533    0.4209 C.3     1  UNL1       -0.0023
     27 C           4.4956   -0.1891    1.2825 C.3     1  UNL1       -0.0023
     28 C          -4.2741   -0.7644   -1.8125 C.2     1  UNL1        0.1672
     29 C           2.3295   -2.7168   -2.4676 C.2     1  UNL1        0.1671
     30 C          -1.4954    4.0722   -0.5306 C.2     1  UNL1       -0.0807
     31 C           4.7068    1.2498    0.8595 C.2     1  UNL1       -0.0807
     32 C          -4.2421   -0.3594   -3.2505 C.3     1  UNL1       -0.0012
     33 C           1.8825   -4.1474   -2.5811 C.3     1  UNL1       -0.0012
     34 C          -0.4297    4.8279   -0.2081 C.2     1  UNL1       -0.0793
     35 C           5.7537    1.7422    0.1711 C.2     1  UNL1       -0.0793
     36 C          -5.4539    2.2020   -0.7114 C.3     1  UNL1        0.0788
     37 C           0.4124    5.4808   -1.2725 C.3     1  UNL1       -0.0440
     38 C           0.0282    5.0820    1.2008 C.3     1  UNL1       -0.0440
     39 C           5.8356    3.2072   -0.1830 C.3     1  UNL1       -0.0440
     40 C           6.9121    0.9208   -0.3173 C.3     1  UNL1       -0.0440
     41 H          -0.3251   -0.7124    2.4122 H       1  UNL1        0.0402
     42 H          -0.2596   -3.0333    2.6916 H       1  UNL1        0.0277
     43 H          -1.0579   -3.3622    1.1889 H       1  UNL1        0.0277
     44 H          -3.1296   -2.0941    2.0811 H       1  UNL1        0.0296
     45 H          -2.1306   -0.6624    3.7631 H       1  UNL1        0.0232
     46 H          -3.2493   -1.7691    4.5500 H       1  UNL1        0.0232
     47 H          -1.5005   -2.0600    4.6539 H       1  UNL1        0.0232
     48 H          -2.9954   -4.5364    2.0912 H       1  UNL1        0.0232
     49 H          -3.8773   -3.9196    3.4904 H       1  UNL1        0.0232
     50 H          -2.2119   -4.5068    3.6848 H       1  UNL1        0.0232
     51 H          -2.1889    3.5579    1.4716 H       1  UNL1        0.0358
     52 H          -3.4184    3.7636    0.2872 H       1  UNL1        0.0358
     53 H           4.4088   -0.2102    2.3732 H       1  UNL1        0.0358
     54 H           5.3540   -0.8168    1.0686 H       1  UNL1        0.0358
     55 H           0.2418    1.1747    1.7325 H       1  UNL1        0.2922
     56 H           1.6083   -0.7216    3.1640 H       1  UNL1        0.2922
     57 H          -3.3233   -2.5478   -0.8077 H       1  UNL1        0.2922
     58 H          -0.1418   -2.3866   -1.9870 H       1  UNL1        0.2922
     59 H          -1.7530    3.9494   -1.5825 H       1  UNL1        0.0575
     60 H           3.9148    1.9279    1.1670 H       1  UNL1        0.0575
     61 H           4.4328   -1.7392   -2.1619 H       1  UNL1        0.2922
     62 H          -5.1513    0.1892   -3.4962 H       1  UNL1        0.0309
     63 H          -3.3608    0.2475   -3.4691 H       1  UNL1        0.0309
     64 H          -4.1750   -1.2685   -3.8579 H       1  UNL1        0.0309
     65 H           2.6876   -4.7246   -3.0412 H       1  UNL1        0.0309
     66 H           1.6798   -4.5811   -1.5973 H       1  UNL1        0.0309
     67 H           0.9804   -4.2072   -3.1957 H       1  UNL1        0.0309
     68 H          -6.0900    1.3344   -0.9078 H       1  UNL1        0.0660
     69 H          -5.3345    2.3437    0.3695 H       1  UNL1        0.0660
     70 H          -5.9461    3.0903   -1.1166 H       1  UNL1        0.0660
     71 H           0.3782    6.5692   -1.1614 H       1  UNL1        0.0274
     72 H           1.4525    5.1521   -1.1861 H       1  UNL1        0.0274
     73 H           0.0678    5.2379   -2.2829 H       1  UNL1        0.0274
     74 H          -0.7824    5.0007    1.9304 H       1  UNL1        0.0274
     75 H           0.4254    6.0971    1.3020 H       1  UNL1        0.0274
     76 H           0.8147    4.3716    1.4729 H       1  UNL1        0.0274
     77 H           4.9615    3.7711    0.1583 H       1  UNL1        0.0274
     78 H           5.9106    3.3305   -1.2684 H       1  UNL1        0.0274
     79 H           6.7215    3.6575    0.2778 H       1  UNL1        0.0274
     80 H           7.0690    0.0136    0.2704 H       1  UNL1        0.0274
     81 H           7.8454    1.4904   -0.2518 H       1  UNL1        0.0274
     82 H           6.7547    0.6368   -1.3625 H       1  UNL1        0.0274
@<TRIPOS>BOND
     1     1    14    1
     2     1    55    1
     3     2    15    1
     4     2    56    1
     5     3    16    1
     6     3    57    1
     7     4    17    1
     8     4    58    1
     9     5    24    1
    10     5    36    1
    11     6    25    1
    12     6    61    1
    13     7    28    2
    14     8    29    2
    15     9    10    1
    16     9    12    1
    17     9    13    1
    18     9    41    1
    19    10    11    1
    20    10    42    1
    21    10    43    1
    22    11    18    1
    23    11    19    1
    24    11    44    1
    25    12    14   ar
    26    12    16   ar
    27    13    15   ar
    28    13    17   ar
    29    14    20   ar
    30    15    21   ar
    31    16    22   ar
    32    17    23   ar
    33    18    45    1
    34    18    46    1
    35    18    47    1
    36    19    48    1
    37    19    49    1
    38    19    50    1
    39    20    24   ar
    40    20    26    1
    41    21    25   ar
    42    21    27    1
    43    22    24   ar
    44    22    28    1
    45    23    25   ar
    46    23    29    1
    47    26    30    1
    48    26    51    1
    49    26    52    1
    50    27    31    1
    51    27    53    1
    52    27    54    1
    53    28    32    1
    54    29    33    1
    55    30    34    2
    56    30    59    1
    57    31    35    2
    58    31    60    1
    59    32    62    1
    60    32    63    1
    61    32    64    1
    62    33    65    1
    63    33    66    1
    64    33    67    1
    65    34    37    1
    66    34    38    1
    67    35    39    1
    68    35    40    1
    69    36    68    1
    70    36    69    1
    71    36    70    1
    72    37    71    1
    73    37    72    1
    74    37    73    1
    75    38    74    1
    76    38    75    1
    77    38    76    1
    78    39    77    1
    79    39    78    1
    80    39    79    1
    81    40    80    1
    82    40    81    1
    83    40    82    1
