@<TRIPOS>MOLECULE
6251
 26 25 0 0 0
SMALL
GASTEIGER

@<TRIPOS>ATOM
      1 O           0.5321    1.2077   -1.3153 O.3     1  UNL1       -0.3865
      2 O          -0.5737   -1.3186   -1.2047 O.3     1  UNL1       -0.3865
      3 O           2.0894   -1.0835    1.1795 O.3     1  UNL1       -0.3869
      4 O          -1.9621    0.9078    1.3881 O.3     1  UNL1       -0.3869
      5 O           4.3816   -0.0117    0.0832 O.3     1  UNL1       -0.3924
      6 O          -4.3137    0.0752    0.2287 O.3     1  UNL1       -0.3924
      7 C           0.6277    0.4614   -0.0850 C.3     1  UNL1        0.1114
      8 C          -0.5761   -0.5051   -0.0229 C.3     1  UNL1        0.1114
      9 C           1.9839   -0.2762   -0.0002 C.3     1  UNL1        0.1065
     10 C          -1.9124    0.2495    0.1148 C.3     1  UNL1        0.1065
     11 C           3.1541    0.7160    0.0263 C.3     1  UNL1        0.0727
     12 C          -3.1217   -0.6871    0.0045 C.3     1  UNL1        0.0727
     13 H           0.5586    1.1734    0.7444 H       1  UNL1        0.0647
     14 H          -0.4691   -1.1703    0.8415 H       1  UNL1        0.0647
     15 H           2.1216   -0.9406   -0.8632 H       1  UNL1        0.0643
     16 H          -2.0070    1.0245   -0.6552 H       1  UNL1        0.0643
     17 H           3.1113    1.3586    0.9123 H       1  UNL1        0.0584
     18 H           3.1753    1.3460   -0.8688 H       1  UNL1        0.0584
     19 H          -3.0867   -1.4583    0.7802 H       1  UNL1        0.0584
     20 H          -3.1909   -1.1687   -0.9754 H       1  UNL1        0.0584
     21 H           1.1152    0.7945   -1.9786 H       1  UNL1        0.2100
     22 H          -0.6594   -0.7017   -1.9571 H       1  UNL1        0.2100
     23 H           1.6075   -1.9127    1.0046 H       1  UNL1        0.2100
     24 H          -2.9079    0.9421    1.6396 H       1  UNL1        0.2100
     25 H           4.2670   -0.6356    0.8276 H       1  UNL1        0.2095
     26 H          -4.4038    0.7002   -0.5116 H       1  UNL1        0.2095
@<TRIPOS>BOND
     1     1     7    1
     2     1    21    1
     3     2     8    1
     4     2    22    1
     5     3     9    1
     6     3    23    1
     7     4    10    1
     8     4    24    1
     9     5    11    1
    10     5    25    1
    11     6    12    1
    12     6    26    1
    13     7     8    1
    14     7     9    1
    15     7    13    1
    16     8    10    1
    17     8    14    1
    18     9    11    1
    19     9    15    1
    20    10    12    1
    21    10    16    1
    22    11    17    1
    23    11    18    1
    24    12    19    1
    25    12    20    1
