@<TRIPOS>MOLECULE
5281672
 33 35 0 0 0
SMALL
GASTEIGER

@<TRIPOS>ATOM
      1 O          -0.5140   -0.8563    0.0124 O.2     1  UNL1       -0.4507
      2 O           0.5193    2.7059   -0.0162 O.3     1  UNL1       -0.5007
      3 O          -4.6458    1.7018    0.0017 O.3     1  UNL1       -0.5058
      4 O          -2.2848    2.8093   -0.0053 O.2     1  UNL1       -0.2830
      5 O          -4.6922   -3.0487    0.0141 O.3     1  UNL1       -0.5065
      6 O           4.4105   -0.4425   -2.3857 O.3     1  UNL1       -0.5032
      7 O           4.4104   -0.3926    2.4088 O.3     1  UNL1       -0.5032
      8 O           5.7877   -0.6995   -0.0466 O.3     1  UNL1       -0.5009
      9 C          -2.5355    0.4872    0.0049 C.ar    1  UNL1        0.1092
     10 C           0.2463    0.3011    0.0059 C.ar    1  UNL1        0.1808
     11 C          -1.8810   -0.7382    0.0087 C.ar    1  UNL1        0.1465
     12 C           1.6908    0.0304    0.0056 C.ar    1  UNL1        0.0282
     13 C          -0.2475    1.5545   -0.0028 C.ar    1  UNL1        0.2082
     14 C          -1.7287    1.7150   -0.0010 C.ar    1  UNL1        0.2379
     15 C          -3.9351    0.5313    0.0049 C.ar    1  UNL1        0.1348
     16 C          -2.6175   -1.9250    0.0128 C.ar    1  UNL1        0.0231
     17 C           2.3898   -0.0852    1.2180 C.ar    1  UNL1       -0.0055
     18 C           2.3824   -0.0863   -1.2083 C.ar    1  UNL1       -0.0055
     19 C          -4.0086   -1.8683    0.0116 C.ar    1  UNL1        0.1239
     20 C          -4.6764   -0.6474    0.0084 C.ar    1  UNL1        0.0223
     21 C           3.7531   -0.3166   -1.1958 C.ar    1  UNL1        0.1626
     22 C           3.7645   -0.3117    1.2095 C.ar    1  UNL1        0.1626
     23 C           4.4464   -0.4366    0.0047 C.ar    1  UNL1        0.2006
     24 H          -2.1142   -2.8881    0.0157 H       1  UNL1        0.0691
     25 H           1.8692    0.0110    2.1683 H       1  UNL1        0.0662
     26 H           1.8619   -0.0080   -2.1598 H       1  UNL1        0.0662
     27 H          -5.7603   -0.5922    0.0075 H       1  UNL1        0.0691
     28 H           1.4605    2.4669   -0.0418 H       1  UNL1        0.2924
     29 H          -4.0032    2.4493   -0.0018 H       1  UNL1        0.2922
     30 H          -5.6459   -2.8592    0.0104 H       1  UNL1        0.2921
     31 H           5.3441   -0.6100   -2.1488 H       1  UNL1        0.2923
     32 H           5.3095   -0.0401    2.2934 H       1  UNL1        0.2923
     33 H           6.0057   -1.2275    0.7425 H       1  UNL1        0.2924
@<TRIPOS>BOND
     1     1    10   ar
     2     1    11   ar
     3     2    13    1
     4     2    28    1
     5     3    15    1
     6     3    29    1
     7     4    14    2
     8     5    19    1
     9     5    30    1
    10     6    21    1
    11     6    31    1
    12     7    22    1
    13     7    32    1
    14     8    23    1
    15     8    33    1
    16     9    11   ar
    17     9    14   ar
    18     9    15   ar
    19    10    12    1
    20    10    13   ar
    21    11    16   ar
    22    12    17   ar
    23    12    18   ar
    24    13    14   ar
    25    15    20   ar
    26    16    19   ar
    27    16    24    1
    28    17    22   ar
    29    17    25    1
    30    18    21   ar
    31    18    26    1
    32    19    20   ar
    33    20    27    1
    34    21    23   ar
    35    22    23   ar
