@<TRIPOS>MOLECULE
7410
 17 17 0 0 0
SMALL
GASTEIGER

@<TRIPOS>ATOM
      1 O           2.3317   -1.1936   -0.0029 O.2     1  UNL1       -0.2924
      2 C           0.2833   -0.0152   -0.0005 C.ar    1  UNL1        0.0171
      3 C          -0.3924    1.2114   -0.0002 C.ar    1  UNL1       -0.0513
      4 C          -0.4558   -1.2061   -0.0003 C.ar    1  UNL1       -0.0513
      5 C           1.7745   -0.0977   -0.0013 C.2     1  UNL1        0.1601
      6 C          -1.7896    1.2439    0.0003 C.ar    1  UNL1       -0.0611
      7 C          -1.8519   -1.1699    0.0002 C.ar    1  UNL1       -0.0611
      8 C          -2.5171    0.0549    0.0005 C.ar    1  UNL1       -0.0617
      9 C           2.5704    1.1820   -0.0000 C.3     1  UNL1       -0.0014
     10 H           0.1414    2.1569   -0.0003 H       1  UNL1        0.0624
     11 H           0.0530   -2.1687   -0.0006 H       1  UNL1        0.0624
     12 H          -2.3103    2.1982    0.0006 H       1  UNL1        0.0618
     13 H          -2.4184   -2.0979    0.0004 H       1  UNL1        0.0618
     14 H          -3.6040    0.0830    0.0009 H       1  UNL1        0.0618
     15 H           2.3529    1.7631   -0.9001 H       1  UNL1        0.0309
     16 H           3.6384    0.9439    0.0001 H       1  UNL1        0.0309
     17 H           2.3524    1.7615    0.9009 H       1  UNL1        0.0309
@<TRIPOS>BOND
     1     1     5    2
     2     2     3   ar
     3     2     4   ar
     4     2     5    1
     5     3     6   ar
     6     3    10    1
     7     4     7   ar
     8     4    11    1
     9     5     9    1
    10     6     8   ar
    11     6    12    1
    12     7     8   ar
    13     7    13    1
    14     8    14    1
    15     9    15    1
    16     9    16    1
    17     9    17    1
