@<TRIPOS>MOLECULE
18950
 24 24 0 0 0
SMALL
GASTEIGER

@<TRIPOS>ATOM
      1 O          -0.6524    1.1303    0.1053 O.3     1  UNL1       -0.3407
      2 O          -0.5535   -2.5607   -0.3359 O.3     1  UNL1       -0.3865
      3 O           2.2067   -1.8920   -0.0232 O.3     1  UNL1       -0.3864
      4 O           1.8965    0.6825    1.2645 O.3     1  UNL1       -0.3841
      5 O           0.9022    2.7913   -0.2517 O.3     1  UNL1       -0.3649
      6 O          -3.3919    0.6588    0.0846 O.3     1  UNL1       -0.3924
      7 C          -0.1393   -1.2683    0.1203 C.3     1  UNL1        0.1119
      8 C           1.2384   -0.9427   -0.4767 C.3     1  UNL1        0.1141
      9 C          -1.1491   -0.1724   -0.2523 C.3     1  UNL1        0.1130
     10 C           1.6708    0.4931   -0.1497 C.3     1  UNL1        0.1339
     11 C           0.5548    1.4577   -0.5866 C.3     1  UNL1        0.1854
     12 C          -2.4825   -0.3685    0.4776 C.3     1  UNL1        0.0730
     13 H          -0.0443   -1.3414    1.2103 H       1  UNL1        0.0647
     14 H           1.1916   -1.0617   -1.5668 H       1  UNL1        0.0648
     15 H          -1.3511   -0.1780   -1.3321 H       1  UNL1        0.0647
     16 H           2.6194    0.7357   -0.6390 H       1  UNL1        0.0671
     17 H           0.3837    1.4157   -1.6680 H       1  UNL1        0.0935
     18 H          -2.3556   -0.2963    1.5625 H       1  UNL1        0.0584
     19 H          -2.9359   -1.3341    0.2358 H       1  UNL1        0.0584
     20 H          -0.7162   -2.5244   -1.2959 H       1  UNL1        0.2100
     21 H           1.7658   -2.7631   -0.0060 H       1  UNL1        0.2100
     22 H           1.0304    0.6658    1.7104 H       1  UNL1        0.2101
     23 H           1.4497    2.7296    0.5531 H       1  UNL1        0.2126
     24 H          -2.9196    1.5034    0.2269 H       1  UNL1        0.2095
@<TRIPOS>BOND
     1     1     9    1
     2     1    11    1
     3     2     7    1
     4     2    20    1
     5     3     8    1
     6     3    21    1
     7     4    10    1
     8     4    22    1
     9     5    11    1
    10     5    23    1
    11     6    12    1
    12     6    24    1
    13     7     8    1
    14     7     9    1
    15     7    13    1
    16     8    10    1
    17     8    14    1
    18     9    12    1
    19     9    15    1
    20    10    11    1
    21    10    16    1
    22    11    17    1
    23    12    18    1
    24    12    19    1
