@<TRIPOS>MOLECULE
73568
 67 71 0 0 0
SMALL
GASTEIGER

@<TRIPOS>ATOM
      1 O          -1.5934   -3.8345    0.4548 O.3     1  UNL1       -0.3300
      2 O           0.1392   -1.3823   -1.5336 O.3     1  UNL1       -0.4523
      3 O           0.9103   -4.9177   -0.7097 O.3     1  UNL1       -0.3853
      4 O          -1.3713   -4.5833   -2.5274 O.3     1  UNL1       -0.3818
      5 O          -2.5746   -1.8487   -0.4326 O.3     1  UNL1       -0.4287
      6 O           1.1014   -1.6208    1.7039 O.3     1  UNL1       -0.4584
      7 O           2.4191   -1.3382   -1.8072 O.2     1  UNL1       -0.2449
      8 O          -4.2093   -2.5523    1.0267 O.2     1  UNL1       -0.2449
      9 O           0.3644    0.5624    1.7614 O.2     1  UNL1       -0.2449
     10 O           2.3012    3.6415    0.4106 O.3     1  UNL1       -0.5028
     11 O           4.7078    1.7432   -1.1012 O.3     1  UNL1       -0.5028
     12 O          -0.9864    3.2975   -2.9450 O.3     1  UNL1       -0.5032
     13 O           0.4179    4.7504   -1.1865 O.3     1  UNL1       -0.5009
     14 O           6.6496    0.7221    0.5170 O.3     1  UNL1       -0.5009
     15 O           5.9929   -0.8369    2.6840 O.3     1  UNL1       -0.5032
     16 O          -2.5472    3.1380    0.0519 O.3     1  UNL1       -0.5032
     17 O          -6.7742    1.7730    1.7027 O.3     1  UNL1       -0.5032
     18 O          -4.9952    3.7559    0.9467 O.3     1  UNL1       -0.5009
     19 C           0.1217   -2.8243   -1.6692 C.3     1  UNL1        0.1631
     20 C           0.6888   -3.5267   -0.4246 C.3     1  UNL1        0.1241
     21 C          -0.2630   -3.4236    0.7826 C.3     1  UNL1        0.1260
     22 C          -1.3275   -3.2687   -1.9550 C.3     1  UNL1        0.1565
     23 C          -2.2070   -3.2158   -0.6796 C.3     1  UNL1        0.2352
     24 C          -0.2470   -2.0634    1.5001 C.3     1  UNL1        0.1216
     25 C           1.3520   -0.7748   -1.6519 C.2     1  UNL1        0.3404
     26 C           1.1652    0.6854   -1.5044 C.ar    1  UNL1        0.0740
     27 C           1.9413    1.4395   -0.5837 C.ar    1  UNL1        0.0458
     28 C          -3.5880   -1.6781    0.4483 C.2     1  UNL1        0.3417
     29 C           1.2485   -0.2734    1.7132 C.2     1  UNL1        0.3401
     30 C           2.9758    0.8191    0.2777 C.ar    1  UNL1        0.0458
     31 C           2.6617    0.0140    1.3968 C.ar    1  UNL1        0.0740
     32 C           0.1856    1.2926   -2.3131 C.ar    1  UNL1       -0.0017
     33 C           1.6665    2.8220   -0.4898 C.ar    1  UNL1        0.1708
     34 C          -3.9064   -0.2336    0.5900 C.ar    1  UNL1        0.0662
     35 C           4.3384    1.0109   -0.0025 C.ar    1  UNL1        0.1708
     36 C           3.6628   -0.5585    2.2018 C.ar    1  UNL1       -0.0017
     37 C          -0.0342    2.6533   -2.2070 C.ar    1  UNL1        0.1628
     38 C           0.6953    3.4148   -1.2985 C.ar    1  UNL1        0.2012
     39 C           5.3372    0.4631    0.8043 C.ar    1  UNL1        0.2012
     40 C           5.0002   -0.3239    1.9011 C.ar    1  UNL1        0.1628
     41 C          -5.1718    0.0989    1.1018 C.ar    1  UNL1       -0.0023
     42 C          -2.9980    0.7764    0.2366 C.ar    1  UNL1       -0.0023
     43 C          -3.3829    2.1051    0.3727 C.ar    1  UNL1        0.1628
     44 C          -5.5423    1.4354    1.2212 C.ar    1  UNL1        0.1628
     45 C          -4.6527    2.4363    0.8465 C.ar    1  UNL1        0.2006
     46 H           0.7291   -3.0983   -2.5430 H       1  UNL1        0.0790
     47 H           1.6668   -3.1210   -0.1522 H       1  UNL1        0.0658
     48 H           0.0868   -4.1592    1.5185 H       1  UNL1        0.0659
     49 H          -1.7626   -2.5932   -2.7023 H       1  UNL1        0.0694
     50 H          -3.1206   -3.7872   -0.8897 H       1  UNL1        0.1086
     51 H          -0.7988   -1.3195    0.9303 H       1  UNL1        0.0725
     52 H          -0.7424   -2.1544    2.4738 H       1  UNL1        0.0725
     53 H           1.6128   -4.9826   -1.3795 H       1  UNL1        0.2101
     54 H          -0.7593   -4.6239   -3.2805 H       1  UNL1        0.2102
     55 H          -0.3903    0.6928   -3.0147 H       1  UNL1        0.0664
     56 H           3.3852   -1.1730    3.0547 H       1  UNL1        0.0664
     57 H          -5.8579   -0.6923    1.3933 H       1  UNL1        0.0663
     58 H          -2.0077    0.5318   -0.1337 H       1  UNL1        0.0663
     59 H           2.9599    3.1457    0.9170 H       1  UNL1        0.2923
     60 H           5.5002    1.3085   -1.4712 H       1  UNL1        0.2923
     61 H          -1.4711    2.6548   -3.4913 H       1  UNL1        0.2923
     62 H          -0.2741    4.9349   -1.8492 H       1  UNL1        0.2924
     63 H           6.7081    1.6648    0.2804 H       1  UNL1        0.2924
     64 H           5.6129   -1.3829    3.3905 H       1  UNL1        0.2923
     65 H          -1.6272    2.8176    0.0649 H       1  UNL1        0.2923
     66 H          -7.2426    0.9719    1.9843 H       1  UNL1        0.2923
     67 H          -4.2038    4.2440    0.6469 H       1  UNL1        0.2924
@<TRIPOS>BOND
     1     1    21    1
     2     1    23    1
     3     2    19    1
     4     2    25    1
     5     3    20    1
     6     3    53    1
     7     4    22    1
     8     4    54    1
     9     5    23    1
    10     5    28    1
    11     6    24    1
    12     6    29    1
    13     7    25    2
    14     8    28    2
    15     9    29    2
    16    10    33    1
    17    10    59    1
    18    11    35    1
    19    11    60    1
    20    12    37    1
    21    12    61    1
    22    13    38    1
    23    13    62    1
    24    14    39    1
    25    14    63    1
    26    15    40    1
    27    15    64    1
    28    16    43    1
    29    16    65    1
    30    17    44    1
    31    17    66    1
    32    18    45    1
    33    18    67    1
    34    19    20    1
    35    19    22    1
    36    19    46    1
    37    20    21    1
    38    20    47    1
    39    21    24    1
    40    21    48    1
    41    22    23    1
    42    22    49    1
    43    23    50    1
    44    24    51    1
    45    24    52    1
    46    25    26    1
    47    26    27   ar
    48    26    32   ar
    49    27    30    1
    50    27    33   ar
    51    28    34    1
    52    29    31    1
    53    30    31   ar
    54    30    35   ar
    55    31    36   ar
    56    32    37   ar
    57    32    55    1
    58    33    38   ar
    59    34    41   ar
    60    34    42   ar
    61    35    39   ar
    62    36    40   ar
    63    36    56    1
    64    37    38   ar
    65    39    40   ar
    66    41    44   ar
    67    41    57    1
    68    42    43   ar
    69    42    58    1
    70    43    45   ar
    71    44    45   ar
