@<TRIPOS>MOLECULE
13894537
 39 40 0 0 0
SMALL
GASTEIGER

@<TRIPOS>ATOM
      1 C          -2.6014    0.2394    0.0729 C.3     1  UNL1       -0.0250
      2 C          -1.5663   -0.7579   -0.4466 C.3     1  UNL1       -0.0283
      3 C          -1.2894    0.7495   -0.4960 C.3     1  UNL1       -0.0139
      4 C          -0.9559   -1.7574    0.5155 C.3     1  UNL1       -0.0455
      5 C          -2.8930    0.3612    1.5524 C.3     1  UNL1       -0.0590
      6 C          -3.8412    0.4348   -0.7680 C.3     1  UNL1       -0.0590
      7 C          -0.1818    1.2493    0.3244 C.2     1  UNL1       -0.0811
      8 C           0.3155   -2.4717    0.0180 C.3     1  UNL1       -0.0317
      9 C           1.0151    1.7196   -0.0844 C.2     1  UNL1       -0.0760
     10 C           1.5242   -1.5691   -0.1573 C.2     1  UNL1       -0.0765
     11 C           2.1718    1.6811    0.9038 C.3     1  UNL1       -0.0286
     12 C           2.9432    0.3349    0.8228 C.3     1  UNL1       -0.0308
     13 C           1.3736    2.0936   -1.4942 C.3     1  UNL1       -0.0438
     14 C           2.0077   -0.8544    0.8845 C.2     1  UNL1       -0.0847
     15 C           2.0078   -1.4661   -1.5772 C.3     1  UNL1       -0.0438
     16 H          -1.7664   -1.2339   -1.4038 H       1  UNL1        0.0312
     17 H          -1.3658    1.2263   -1.4710 H       1  UNL1        0.0351
     18 H          -1.7177   -2.5286    0.6925 H       1  UNL1        0.0271
     19 H          -0.7523   -1.3151    1.4941 H       1  UNL1        0.0271
     20 H          -3.2881    1.3588    1.7737 H       1  UNL1        0.0235
     21 H          -3.6451   -0.3789    1.8468 H       1  UNL1        0.0235
     22 H          -2.0283    0.2092    2.1996 H       1  UNL1        0.0235
     23 H          -3.6346    0.3439   -1.8395 H       1  UNL1        0.0235
     24 H          -4.5962   -0.3143   -0.5070 H       1  UNL1        0.0235
     25 H          -4.2652    1.4286   -0.5897 H       1  UNL1        0.0235
     26 H          -0.2656    1.0437    1.3899 H       1  UNL1        0.0575
     27 H           0.0863   -2.9830   -0.9257 H       1  UNL1        0.0310
     28 H           0.5775   -3.2636    0.7321 H       1  UNL1        0.0310
     29 H           2.8562    2.5184    0.7230 H       1  UNL1        0.0313
     30 H           1.7997    1.8170    1.9288 H       1  UNL1        0.0313
     31 H           3.6438    0.2725    1.6642 H       1  UNL1        0.0310
     32 H           3.5579    0.3211   -0.0811 H       1  UNL1        0.0310
     33 H           0.5463    1.9682   -2.1957 H       1  UNL1        0.0274
     34 H           2.2103    1.4910   -1.8591 H       1  UNL1        0.0274
     35 H           1.6764    3.1462   -1.5293 H       1  UNL1        0.0274
     36 H           1.5680   -1.0152    1.8687 H       1  UNL1        0.0572
     37 H           1.2296   -1.0324   -2.2135 H       1  UNL1        0.0274
     38 H           2.2478   -2.4644   -1.9596 H       1  UNL1        0.0274
     39 H           2.9112   -0.8637   -1.6875 H       1  UNL1        0.0274
@<TRIPOS>BOND
     1     1     2    1
     2     1     3    1
     3     1     5    1
     4     1     6    1
     5     2     3    1
     6     2     4    1
     7     2    16    1
     8     3     7    1
     9     3    17    1
    10     4     8    1
    11     4    18    1
    12     4    19    1
    13     5    20    1
    14     5    21    1
    15     5    22    1
    16     6    23    1
    17     6    24    1
    18     6    25    1
    19     7     9    2
    20     7    26    1
    21     8    10    1
    22     8    27    1
    23     8    28    1
    24     9    11    1
    25     9    13    1
    26    10    14    2
    27    10    15    1
    28    11    12    1
    29    11    29    1
    30    11    30    1
    31    12    14    1
    32    12    31    1
    33    12    32    1
    34    13    33    1
    35    13    34    1
    36    13    35    1
    37    14    36    1
    38    15    37    1
    39    15    38    1
    40    15    39    1
