@<TRIPOS>MOLECULE
42608158
 39 41 0 0 0
SMALL
GASTEIGER

@<TRIPOS>ATOM
      1 C           0.7289   -0.0420   -0.4705 C.3     1  UNL1       -0.0287
      2 C           2.1259    0.5269   -0.2339 C.3     1  UNL1       -0.0284
      3 C           0.9335    1.4572   -0.4424 C.3     1  UNL1       -0.0317
      4 C          -0.1378   -0.6555    0.6020 C.3     1  UNL1       -0.0284
      5 C          -1.6333   -0.2999    0.4056 C.3     1  UNL1       -0.0168
      6 C           0.3474    2.2881    0.6610 C.3     1  UNL1       -0.0457
      7 C          -0.1525   -2.1940    0.6014 C.3     1  UNL1       -0.0402
      8 C           2.7922    0.4060    1.1159 C.3     1  UNL1       -0.0593
      9 C           3.1177    0.4326   -1.3705 C.3     1  UNL1       -0.0593
     10 C          -2.1342   -1.3787   -0.5775 C.3     1  UNL1       -0.0460
     11 C          -1.2037   -2.5837   -0.4352 C.3     1  UNL1       -0.0496
     12 C          -1.1875    2.2440    0.7723 C.3     1  UNL1       -0.0314
     13 C          -1.9374    1.1494    0.0309 C.2     1  UNL1       -0.0732
     14 C           1.1908   -2.8705    0.3675 C.3     1  UNL1       -0.0621
     15 C          -2.8649    1.4978   -0.8798 C.2     1  UNL1       -0.0992
     16 H           0.5231   -0.4721   -1.4470 H       1  UNL1        0.0312
     17 H           0.8397    1.9690   -1.3969 H       1  UNL1        0.0309
     18 H           0.1712   -0.3169    1.5937 H       1  UNL1        0.0312
     19 H          -2.1336   -0.4821    1.3687 H       1  UNL1        0.0348
     20 H           0.6598    3.3288    0.5066 H       1  UNL1        0.0271
     21 H           0.7642    2.0163    1.6356 H       1  UNL1        0.0271
     22 H          -0.5217   -2.5211    1.5845 H       1  UNL1        0.0301
     23 H           3.4089   -0.4980    1.1533 H       1  UNL1        0.0235
     24 H           2.0978    0.3492    1.9571 H       1  UNL1        0.0235
     25 H           3.4439    1.2686    1.2897 H       1  UNL1        0.0235
     26 H           3.6357   -0.5318   -1.3435 H       1  UNL1        0.0235
     27 H           3.8658    1.2278   -1.2854 H       1  UNL1        0.0235
     28 H           2.6355    0.5277   -2.3492 H       1  UNL1        0.0235
     29 H          -2.0986   -1.0382   -1.6174 H       1  UNL1        0.0271
     30 H          -3.1724   -1.6547   -0.3587 H       1  UNL1        0.0271
     31 H          -1.7547   -3.4763   -0.1178 H       1  UNL1        0.0268
     32 H          -0.7494   -2.8144   -1.4069 H       1  UNL1        0.0268
     33 H          -1.5622    3.2267    0.4542 H       1  UNL1        0.0310
     34 H          -1.4545    2.1801    1.8358 H       1  UNL1        0.0310
     35 H           1.6034   -2.6348   -0.6187 H       1  UNL1        0.0233
     36 H           1.0850   -3.9585    0.4264 H       1  UNL1        0.0233
     37 H           1.9174   -2.5627    1.1253 H       1  UNL1        0.0233
     38 H          -3.4654    0.7700   -1.4137 H       1  UNL1        0.0534
     39 H          -3.0711    2.5402   -1.1107 H       1  UNL1        0.0534
@<TRIPOS>BOND
     1     1     2    1
     2     1     3    1
     3     1     4    1
     4     1    16    1
     5     2     3    1
     6     2     8    1
     7     2     9    1
     8     3     6    1
     9     3    17    1
    10     4     5    1
    11     4     7    1
    12     4    18    1
    13     5    10    1
    14     5    13    1
    15     5    19    1
    16     6    12    1
    17     6    20    1
    18     6    21    1
    19     7    11    1
    20     7    14    1
    21     7    22    1
    22     8    23    1
    23     8    24    1
    24     8    25    1
    25     9    26    1
    26     9    27    1
    27     9    28    1
    28    10    11    1
    29    10    29    1
    30    10    30    1
    31    11    31    1
    32    11    32    1
    33    12    13    1
    34    12    33    1
    35    12    34    1
    36    13    15    2
    37    14    35    1
    38    14    36    1
    39    14    37    1
    40    15    38    1
    41    15    39    1
