@<TRIPOS>MOLECULE
638011
 27 26 0 0 0
SMALL
GASTEIGER

@<TRIPOS>ATOM
      1 O          -3.8226   -1.4758    0.3514 O.2     1  UNL1       -0.2963
      2 C          -0.2469    1.7693    0.6970 C.3     1  UNL1       -0.0282
      3 C           1.2612    1.6082    0.4350 C.3     1  UNL1       -0.0308
      4 C          -1.1321    0.8376   -0.1101 C.2     1  UNL1       -0.0693
      5 C           1.7763    0.2430    0.8058 C.2     1  UNL1       -0.0850
      6 C           2.4231   -0.6449    0.0259 C.2     1  UNL1       -0.0796
      7 C          -1.0223    0.9681   -1.6058 C.3     1  UNL1       -0.0434
      8 C          -1.9853   -0.0003    0.5124 C.2     1  UNL1       -0.0235
      9 C           2.8496   -1.9798    0.5837 C.3     1  UNL1       -0.0440
     10 C           2.7888   -0.4430   -1.4193 C.3     1  UNL1       -0.0440
     11 C          -2.8480   -0.9714   -0.1938 C.2     1  UNL1        0.1431
     12 H          -0.5319    2.8028    0.4613 H       1  UNL1        0.0313
     13 H          -0.4348    1.6462    1.7715 H       1  UNL1        0.0313
     14 H           1.4798    1.8683   -0.6036 H       1  UNL1        0.0310
     15 H           1.7980    2.3446    1.0470 H       1  UNL1        0.0310
     16 H           1.5859   -0.0316    1.8445 H       1  UNL1        0.0572
     17 H          -1.9523    0.7027   -2.1164 H       1  UNL1        0.0274
     18 H          -0.2188    0.3321   -1.9878 H       1  UNL1        0.0274
     19 H          -0.8074    2.0043   -1.8868 H       1  UNL1        0.0274
     20 H           3.9373   -2.0867    0.5217 H       1  UNL1        0.0274
     21 H           2.3859   -2.7924    0.0146 H       1  UNL1        0.0274
     22 H           2.5616   -2.1038    1.6327 H       1  UNL1        0.0274
     23 H           3.8730   -0.5307   -1.5478 H       1  UNL1        0.0274
     24 H           2.4953    0.5309   -1.8147 H       1  UNL1        0.0274
     25 H           2.3062   -1.2057   -2.0387 H       1  UNL1        0.0274
     26 H          -2.0830   -0.0238    1.5903 H       1  UNL1        0.0649
     27 H          -2.5594   -1.2312   -1.2264 H       1  UNL1        0.1075
@<TRIPOS>BOND
     1     1    11    2
     2     2     3    1
     3     2     4    1
     4     2    12    1
     5     2    13    1
     6     3     5    1
     7     3    14    1
     8     3    15    1
     9     4     7    1
    10     4     8    2
    11     5     6    2
    12     5    16    1
    13     6     9    1
    14     6    10    1
    15     7    17    1
    16     7    18    1
    17     7    19    1
    18     8    11    1
    19     8    26    1
    20     9    20    1
    21     9    21    1
    22     9    22    1
    23    10    23    1
    24    10    24    1
    25    10    25    1
    26    11    27    1
