@<TRIPOS>MOLECULE
1252759
 27 27 0 0 0
SMALL
GASTEIGER

@<TRIPOS>ATOM
      1 O           3.8124    0.3806   -0.3281 O.2     1  UNL1       -0.3010
      2 C          -0.9181   -0.6647   -0.0182 C.3     1  UNL1       -0.0107
      3 C           0.4488   -0.0564    0.4339 C.3     1  UNL1       -0.0224
      4 C           0.3989    1.4153   -0.0043 C.3     1  UNL1       -0.0305
      5 C          -1.7954    0.5747    0.0170 C.2     1  UNL1       -0.0706
      6 C          -1.0638    1.6984    0.0182 C.2     1  UNL1       -0.0842
      7 C           1.7033   -0.7735   -0.0625 C.3     1  UNL1        0.0067
      8 C          -0.8953   -1.2493   -1.4400 C.3     1  UNL1       -0.0558
      9 C          -1.3720   -1.7448    0.9728 C.3     1  UNL1       -0.0558
     10 C          -3.2843    0.5143   -0.0047 C.3     1  UNL1       -0.0433
     11 C           2.9645   -0.0955    0.4160 C.2     1  UNL1        0.1206
     12 H           0.4802   -0.0575    1.5353 H       1  UNL1        0.0316
     13 H           0.8028    1.5739   -1.0093 H       1  UNL1        0.0310
     14 H           0.9394    2.0511    0.7038 H       1  UNL1        0.0310
     15 H          -1.4721    2.6995    0.0033 H       1  UNL1        0.0572
     16 H           1.7233   -1.8037    0.3070 H       1  UNL1        0.0342
     17 H           1.7390   -0.8036   -1.1541 H       1  UNL1        0.0342
     18 H          -1.8963   -1.5637   -1.7566 H       1  UNL1        0.0238
     19 H          -0.5341   -0.5205   -2.1748 H       1  UNL1        0.0238
     20 H          -0.2495   -2.1326   -1.4970 H       1  UNL1        0.0238
     21 H          -2.3377   -2.1742    0.6822 H       1  UNL1        0.0238
     22 H          -0.6467   -2.5646    1.0182 H       1  UNL1        0.0238
     23 H          -1.4835   -1.3416    1.9859 H       1  UNL1        0.0238
     24 H          -3.7257    1.5159   -0.0450 H       1  UNL1        0.0275
     25 H          -3.6628    0.0220    0.8959 H       1  UNL1        0.0275
     26 H          -3.6365   -0.0387   -0.8801 H       1  UNL1        0.0275
     27 H           3.0972   -0.0628    1.5090 H       1  UNL1        0.1026
@<TRIPOS>BOND
     1     1    11    2
     2     2     3    1
     3     2     5    1
     4     2     8    1
     5     2     9    1
     6     3     4    1
     7     3     7    1
     8     3    12    1
     9     4     6    1
    10     4    13    1
    11     4    14    1
    12     5     6    2
    13     5    10    1
    14     6    15    1
    15     7    11    1
    16     7    16    1
    17     7    17    1
    18     8    18    1
    19     8    19    1
    20     8    20    1
    21     9    21    1
    22     9    22    1
    23     9    23    1
    24    10    24    1
    25    10    25    1
    26    10    26    1
    27    11    27    1
