@<TRIPOS>MOLECULE
6989
 25 25 0 0 0
SMALL
GASTEIGER

@<TRIPOS>ATOM
      1 O          -0.3399    2.3787   -0.0691 O.3     1  UNL1       -0.5065
      2 C          -2.1904    0.0529    0.0023 C.3     1  UNL1       -0.0181
      3 C          -0.6724   -0.0311   -0.0172 C.ar    1  UNL1       -0.0034
      4 C          -2.7811   -0.5836    1.2643 C.3     1  UNL1       -0.0585
      5 C          -2.7935   -0.5692   -1.2606 C.3     1  UNL1       -0.0585
      6 C           0.1500    1.1039   -0.0269 C.ar    1  UNL1        0.1205
      7 C          -0.0386   -1.2876   -0.0049 C.ar    1  UNL1       -0.0546
      8 C           2.1572   -0.2574   -0.0164 C.ar    1  UNL1       -0.0470
      9 C           1.5416    0.9965   -0.0029 C.ar    1  UNL1       -0.0170
     10 C           1.3556   -1.4002   -0.0032 C.ar    1  UNL1       -0.0583
     11 C           3.6524   -0.3704    0.0077 C.3     1  UNL1       -0.0396
     12 H          -2.5050    1.1015    0.0204 H       1  UNL1        0.0345
     13 H          -2.5966   -1.6621    1.3091 H       1  UNL1        0.0235
     14 H          -3.8654   -0.4313    1.2982 H       1  UNL1        0.0235
     15 H          -2.3520   -0.1322    2.1659 H       1  UNL1        0.0235
     16 H          -2.3707   -0.1109   -2.1617 H       1  UNL1        0.0235
     17 H          -3.8778   -0.4180   -1.2842 H       1  UNL1        0.0235
     18 H          -2.6080   -1.6475   -1.3165 H       1  UNL1        0.0235
     19 H          -0.6278   -2.2023    0.0071 H       1  UNL1        0.0622
     20 H           2.1413    1.9036    0.0072 H       1  UNL1        0.0657
     21 H           1.8088   -2.3894    0.0079 H       1  UNL1        0.0620
     22 H           4.1136    0.4710   -0.5213 H       1  UNL1        0.0278
     23 H           4.0118   -0.3806    1.0403 H       1  UNL1        0.0278
     24 H           3.9818   -1.2863   -0.4933 H       1  UNL1        0.0278
     25 H          -1.1483    2.3713   -0.6050 H       1  UNL1        0.2921
@<TRIPOS>BOND
     1     1     6    1
     2     1    25    1
     3     2     3    1
     4     2     4    1
     5     2     5    1
     6     2    12    1
     7     3     6   ar
     8     3     7   ar
     9     4    13    1
    10     4    14    1
    11     4    15    1
    12     5    16    1
    13     5    17    1
    14     5    18    1
    15     6     9   ar
    16     7    10   ar
    17     7    19    1
    18     8     9   ar
    19     8    10   ar
    20     8    11    1
    21     9    20    1
    22    10    21    1
    23    11    22    1
    24    11    23    1
    25    11    24    1
