@<TRIPOS>MOLECULE
61166
 21 21 0 0 0
SMALL
GASTEIGER

@<TRIPOS>ATOM
      1 O          -0.7844    0.1203   -0.1186 O.3     1  UNL1       -0.4568
      2 O           1.8646    0.7430    0.7321 O.2     1  UNL1       -0.4644
      3 O          -2.4970   -1.2761    0.4957 O.2     1  UNL1       -0.2509
      4 C           0.1286   -0.9008    0.2932 C.3     1  UNL1        0.1497
      5 C           1.4996   -0.3828    0.0502 C.ar    1  UNL1        0.1421
      6 C          -2.9598    0.9458   -0.3935 C.3     1  UNL1        0.0421
      7 C          -2.0934   -0.2093    0.0535 C.2     1  UNL1        0.3072
      8 C           2.5522   -0.8190   -0.7293 C.ar    1  UNL1       -0.0173
      9 C          -4.4431    0.6462   -0.2633 C.3     1  UNL1       -0.0552
     10 C           3.6130    0.0951   -0.5189 C.ar    1  UNL1       -0.0235
     11 C           3.1429    1.0281    0.3746 C.ar    1  UNL1        0.0922
     12 H          -0.0386   -1.8080   -0.2987 H       1  UNL1        0.0780
     13 H           0.0012   -1.1216    1.3589 H       1  UNL1        0.0780
     14 H          -2.7124    1.8207    0.2174 H       1  UNL1        0.0375
     15 H          -2.7283    1.1651   -1.4415 H       1  UNL1        0.0375
     16 H           2.5551   -1.6924   -1.3664 H       1  UNL1        0.0653
     17 H          -4.7123    0.4321    0.7761 H       1  UNL1        0.0235
     18 H          -5.0354    1.5033   -0.5998 H       1  UNL1        0.0235
     19 H          -4.7244   -0.2217   -0.8688 H       1  UNL1        0.0235
     20 H           4.5992    0.0765   -0.9609 H       1  UNL1        0.0649
     21 H           3.5711    1.9074    0.8353 H       1  UNL1        0.1029
@<TRIPOS>BOND
     1     1     4    1
     2     1     7    1
     3     2     5   ar
     4     2    11   ar
     5     3     7    2
     6     4     5    1
     7     4    12    1
     8     4    13    1
     9     5     8   ar
    10     6     7    1
    11     6     9    1
    12     6    14    1
    13     6    15    1
    14     8    10   ar
    15     8    16    1
    16     9    17    1
    17     9    18    1
    18     9    19    1
    19    10    11   ar
    20    10    20    1
    21    11    21    1
