@<TRIPOS>MOLECULE
79035
 26 28 0 0 0
SMALL
GASTEIGER

@<TRIPOS>ATOM
      1 C          -0.1620    0.8906   -0.0003 C.3     1  UNL1       -0.0205
      2 C           1.1376    0.7569    0.7449 C.3     1  UNL1       -0.0312
      3 C           1.1378    0.7564   -0.7455 C.3     1  UNL1       -0.0312
      4 C          -0.8503   -0.4760    0.0005 C.3     1  UNL1       -0.0261
      5 C           0.5067   -1.3037    0.0006 C.3     1  UNL1       -0.0348
      6 C           1.2964   -0.6764    1.1992 C.3     1  UNL1       -0.0461
      7 C           1.2962   -0.6772   -1.1986 C.3     1  UNL1       -0.0461
      8 C          -0.9341    2.1594   -0.0009 C.3     1  UNL1       -0.0585
      9 C          -1.7112   -0.7124   -1.2465 C.3     1  UNL1       -0.0590
     10 C          -1.7105   -0.7108    1.2482 C.3     1  UNL1       -0.0590
     11 H           1.5720    1.5475    1.3265 H       1  UNL1        0.0309
     12 H           1.5722    1.5465   -1.3275 H       1  UNL1        0.0309
     13 H           0.4171   -2.3905    0.0009 H       1  UNL1        0.0306
     14 H           0.8494   -0.8704    2.1758 H       1  UNL1        0.0271
     15 H           2.3467   -0.9847    1.2108 H       1  UNL1        0.0271
     16 H           2.3465   -0.9857   -1.2104 H       1  UNL1        0.0271
     17 H           0.8492   -0.8719   -2.1751 H       1  UNL1        0.0271
     18 H          -0.2727    3.0324   -0.0013 H       1  UNL1        0.0235
     19 H          -1.5720    2.2240   -0.8876 H       1  UNL1        0.0235
     20 H          -1.5719    2.2248    0.8860 H       1  UNL1        0.0235
     21 H          -1.2282   -0.3878   -2.1723 H       1  UNL1        0.0235
     22 H          -1.9671   -1.7723   -1.3463 H       1  UNL1        0.0235
     23 H          -2.6480   -0.1460   -1.1849 H       1  UNL1        0.0235
     24 H          -2.6477   -0.1450    1.1861 H       1  UNL1        0.0235
     25 H          -1.9657   -1.7709    1.3499 H       1  UNL1        0.0235
     26 H          -1.2274   -0.3843    2.1733 H       1  UNL1        0.0235
@<TRIPOS>BOND
     1     1     2    1
     2     1     3    1
     3     1     4    1
     4     1     8    1
     5     2     3    1
     6     2     6    1
     7     2    11    1
     8     3     7    1
     9     3    12    1
    10     4     5    1
    11     4     9    1
    12     4    10    1
    13     5     6    1
    14     5     7    1
    15     5    13    1
    16     6    14    1
    17     6    15    1
    18     7    16    1
    19     7    17    1
    20     8    18    1
    21     8    19    1
    22     8    20    1
    23     9    21    1
    24     9    22    1
    25     9    23    1
    26    10    24    1
    27    10    25    1
    28    10    26    1
