@<TRIPOS>MOLECULE
5280378
 32 34 0 0 0
SMALL
GASTEIGER

@<TRIPOS>ATOM
      1 O          -1.7511    1.8499   -0.0541 O.2     1  UNL1       -0.4620
      2 O          -0.3061   -1.9677    0.0445 O.2     1  UNL1       -0.2864
      3 O           5.7742   -0.1411    0.3081 O.3     1  UNL1       -0.4951
      4 O          -6.2196    0.3243   -0.1000 O.3     1  UNL1       -0.5066
      5 C           0.1632    0.3678    0.0569 C.ar    1  UNL1        0.0643
      6 C          -2.1759   -0.5414   -0.0065 C.ar    1  UNL1        0.0648
      7 C           1.6192    0.2331    0.1049 C.ar    1  UNL1       -0.0110
      8 C          -0.7310   -0.8188    0.0338 C.ar    1  UNL1        0.2001
      9 C          -2.6133    0.7817   -0.0474 C.ar    1  UNL1        0.1419
     10 C          -0.4045    1.5815    0.0062 C.ar    1  UNL1        0.1038
     11 C          -3.0994   -1.5931    0.0006 C.ar    1  UNL1       -0.0439
     12 C          -3.9786    1.0617   -0.0813 C.ar    1  UNL1        0.0228
     13 C           2.2961    0.1847    1.3304 C.ar    1  UNL1       -0.0504
     14 C           2.3478    0.1605   -1.0836 C.ar    1  UNL1       -0.0504
     15 C          -4.8929    0.0116   -0.0709 C.ar    1  UNL1        0.1204
     16 C          -4.4666   -1.3142   -0.0305 C.ar    1  UNL1       -0.0193
     17 C           3.6880    0.0575    1.3585 C.ar    1  UNL1       -0.0194
     18 C           3.7399    0.0341   -1.0503 C.ar    1  UNL1       -0.0194
     19 C           4.4170   -0.0179    0.1684 C.ar    1  UNL1        0.1201
     20 C           6.5167   -0.2260   -0.9055 C.3     1  UNL1        0.0788
     21 H           0.1563    2.5090    0.0043 H       1  UNL1        0.1037
     22 H          -2.7546   -2.6246    0.0328 H       1  UNL1        0.0627
     23 H           1.7470    0.2301    2.2666 H       1  UNL1        0.0625
     24 H           1.8457    0.1872   -2.0464 H       1  UNL1        0.0625
     25 H          -4.3299    2.0891   -0.1122 H       1  UNL1        0.0691
     26 H          -5.1760   -2.1363   -0.0210 H       1  UNL1        0.0654
     27 H           4.2039    0.0106    2.3148 H       1  UNL1        0.0654
     28 H           4.2587   -0.0266   -2.0007 H       1  UNL1        0.0654
     29 H          -6.7368   -0.4983   -0.0871 H       1  UNL1        0.2921
     30 H           7.5770   -0.3237   -0.6556 H       1  UNL1        0.0660
     31 H           6.2280   -1.1119   -1.4818 H       1  UNL1        0.0660
     32 H           6.3981    0.6860   -1.5007 H       1  UNL1        0.0660
@<TRIPOS>BOND
     1     1     9   ar
     2     1    10   ar
     3     2     8    2
     4     3    19    1
     5     3    20    1
     6     4    15    1
     7     4    29    1
     8     5     7    1
     9     5     8   ar
    10     5    10   ar
    11     6     8   ar
    12     6     9   ar
    13     6    11   ar
    14     7    13   ar
    15     7    14   ar
    16     9    12   ar
    17    10    21    1
    18    11    16   ar
    19    11    22    1
    20    12    15   ar
    21    12    25    1
    22    13    17   ar
    23    13    23    1
    24    14    18   ar
    25    14    24    1
    26    15    16   ar
    27    16    26    1
    28    17    19   ar
    29    17    27    1
    30    18    19   ar
    31    18    28    1
    32    20    30    1
    33    20    31    1
    34    20    32    1
