@<TRIPOS>MOLECULE
445639
 54 53 0 0 0
SMALL
GASTEIGER

@<TRIPOS>ATOM
      1 O           7.2374    0.3342   -0.6631 O.3     1  UNL1       -0.4806
      2 O           6.1784   -0.1475    1.2409 O.2     1  UNL1       -0.2510
      3 C          -3.1183   -1.5954   -0.3263 C.3     1  UNL1       -0.0530
      4 C          -4.4003   -1.3731    0.4828 C.3     1  UNL1       -0.0528
      5 C          -2.0898   -2.4148    0.4604 C.3     1  UNL1       -0.0531
      6 C          -0.0046    1.9201   -0.4205 C.3     1  UNL1       -0.0528
      7 C           1.2020    1.3614    0.3375 C.3     1  UNL1       -0.0530
      8 C          -5.4974   -0.6287   -0.2906 C.3     1  UNL1       -0.0496
      9 C          -1.2524    1.9449    0.4669 C.3     1  UNL1       -0.0496
     10 C           2.4618    1.3500   -0.5324 C.3     1  UNL1       -0.0526
     11 C          -0.8268   -2.6776   -0.3668 C.3     1  UNL1       -0.0533
     12 C          -5.1340    0.7848   -0.7630 C.3     1  UNL1       -0.0348
     13 C          -2.4716    2.4811   -0.2885 C.3     1  UNL1       -0.0348
     14 C           3.6700    0.8140    0.2399 C.3     1  UNL1       -0.0430
     15 C           0.1802   -3.5391    0.3992 C.3     1  UNL1       -0.0559
     16 C          -4.8280    1.7250    0.3687 C.2     1  UNL1       -0.0879
     17 C          -3.7056    2.4378    0.5695 C.2     1  UNL1       -0.0879
     18 C           4.9223    0.7985   -0.6352 C.3     1  UNL1        0.0448
     19 C           1.4150   -3.8427   -0.4366 C.3     1  UNL1       -0.0653
     20 C           6.1281    0.2828    0.1027 C.2     1  UNL1        0.3047
     21 H          -2.6732   -0.6332   -0.5974 H       1  UNL1        0.0265
     22 H          -3.3635   -2.1118   -1.2617 H       1  UNL1        0.0265
     23 H          -4.8054   -2.3490    0.7806 H       1  UNL1        0.0265
     24 H          -4.1686   -0.8390    1.4115 H       1  UNL1        0.0265
     25 H          -1.8210   -1.8814    1.3804 H       1  UNL1        0.0265
     26 H          -2.5360   -3.3710    0.7597 H       1  UNL1        0.0265
     27 H           0.2159    2.9351   -0.7719 H       1  UNL1        0.0265
     28 H          -0.1962    1.3041   -1.3080 H       1  UNL1        0.0265
     29 H           1.3825    1.9664    1.2344 H       1  UNL1        0.0265
     30 H           0.9825    0.3411    0.6740 H       1  UNL1        0.0265
     31 H          -6.3914   -0.5746    0.3437 H       1  UNL1        0.0268
     32 H          -5.7813   -1.2237   -1.1671 H       1  UNL1        0.0268
     33 H          -1.0610    2.5699    1.3487 H       1  UNL1        0.0268
     34 H          -1.4570    0.9317    0.8345 H       1  UNL1        0.0268
     35 H           2.6742    2.3670   -0.8837 H       1  UNL1        0.0265
     36 H           2.2891    0.7310   -1.4205 H       1  UNL1        0.0265
     37 H          -1.1011   -3.1824   -1.3010 H       1  UNL1        0.0265
     38 H          -0.3607   -1.7232   -0.6398 H       1  UNL1        0.0265
     39 H          -5.9942    1.1946   -1.3075 H       1  UNL1        0.0307
     40 H          -4.3211    0.7302   -1.4916 H       1  UNL1        0.0307
     41 H          -2.6036    1.9220   -1.2192 H       1  UNL1        0.0307
     42 H          -2.2931    3.5238   -0.5789 H       1  UNL1        0.0307
     43 H           3.4591   -0.2000    0.6022 H       1  UNL1        0.0270
     44 H           3.8484    1.4344    1.1279 H       1  UNL1        0.0270
     45 H           0.4864   -3.0253    1.3181 H       1  UNL1        0.0263
     46 H          -0.2885   -4.4839    0.6964 H       1  UNL1        0.0263
     47 H          -5.6276    1.8390    1.0982 H       1  UNL1        0.0569
     48 H          -3.6711    3.0782    1.4512 H       1  UNL1        0.0569
     49 H           4.7577    0.1553   -1.5069 H       1  UNL1        0.0377
     50 H           5.1439    1.8155   -0.9785 H       1  UNL1        0.0377
     51 H           1.9333   -2.9226   -0.7244 H       1  UNL1        0.0230
     52 H           2.1152   -4.4619    0.1340 H       1  UNL1        0.0230
     53 H           1.1485   -4.3878   -1.3479 H       1  UNL1        0.0230
     54 H           7.9451   -0.0230   -0.0863 H       1  UNL1        0.2951
@<TRIPOS>BOND
     1     1    20    1
     2     1    54    1
     3     2    20    2
     4     3     4    1
     5     3     5    1
     6     3    21    1
     7     3    22    1
     8     4     8    1
     9     4    23    1
    10     4    24    1
    11     5    11    1
    12     5    25    1
    13     5    26    1
    14     6     7    1
    15     6     9    1
    16     6    27    1
    17     6    28    1
    18     7    10    1
    19     7    29    1
    20     7    30    1
    21     8    12    1
    22     8    31    1
    23     8    32    1
    24     9    13    1
    25     9    33    1
    26     9    34    1
    27    10    14    1
    28    10    35    1
    29    10    36    1
    30    11    15    1
    31    11    37    1
    32    11    38    1
    33    12    16    1
    34    12    39    1
    35    12    40    1
    36    13    17    1
    37    13    41    1
    38    13    42    1
    39    14    18    1
    40    14    43    1
    41    14    44    1
    42    15    19    1
    43    15    45    1
    44    15    46    1
    45    16    17    2
    46    16    47    1
    47    17    48    1
    48    18    20    1
    49    18    49    1
    50    18    50    1
    51    19    51    1
    52    19    52    1
    53    19    53    1
