90785
  -OEChem-05312503013D

 42 43  0     1  0  0  0  0  0999 V2000
   -3.0396   -1.7692    0.0815 O   0  0  0  0  0  0  0  0  0  0  0  0
    0.9891   -0.6845    0.3477 C   0  0  2  0  0  0  0  0  0  0  0  0
    1.9258   -1.7999   -0.1721 C   0  0  1  0  0  0  0  0  0  0  0  0
   -0.4170   -0.8431   -0.2489 C   0  0  0  0  0  0  0  0  0  0  0  0
   -1.4933    0.0387    0.4035 C   0  0  1  0  0  0  0  0  0  0  0  0
    1.7106    0.5885   -0.0605 C   0  0  0  0  0  0  0  0  0  0  0  0
    3.3103   -1.1638   -0.1297 C   0  0  0  0  0  0  0  0  0  0  0  0
    3.0588    0.2443   -0.6446 C   0  0  0  0  0  0  0  0  0  0  0  0
   -1.2842    1.5416    0.1664 C   0  0  0  0  0  0  0  0  0  0  0  0
   -2.8726   -0.3689   -0.1301 C   0  0  0  0  0  0  0  0  0  0  0  0
    1.2537    1.8394    0.1452 C   0  0  0  0  0  0  0  0  0  0  0  0
   -0.0487    2.1135    0.8590 C   0  0  0  0  0  0  0  0  0  0  0  0
    1.8557   -3.0815    0.6477 C   0  0  0  0  0  0  0  0  0  0  0  0
   -2.9783   -0.0820   -1.6250 C   0  0  0  0  0  0  0  0  0  0  0  0
   -3.9740    0.3522    0.6398 C   0  0  0  0  0  0  0  0  0  0  0  0
    2.0037    3.0746   -0.2800 C   0  0  0  0  0  0  0  0  0  0  0  0
    0.9456   -0.7305    1.4441 H   0  0  0  0  0  0  0  0  0  0  0  0
    1.6820   -2.0409   -1.2166 H   0  0  0  0  0  0  0  0  0  0  0  0
   -0.3522   -0.6393   -1.3245 H   0  0  0  0  0  0  0  0  0  0  0  0
   -0.6986   -1.8974   -0.1497 H   0  0  0  0  0  0  0  0  0  0  0  0
   -1.4662   -0.1632    1.4835 H   0  0  0  0  0  0  0  0  0  0  0  0
    4.0333   -1.7020   -0.7507 H   0  0  0  0  0  0  0  0  0  0  0  0
    3.7012   -1.1324    0.8954 H   0  0  0  0  0  0  0  0  0  0  0  0
    3.0014    0.2472   -1.7389 H   0  0  0  0  0  0  0  0  0  0  0  0
    3.8600    0.9144   -0.3211 H   0  0  0  0  0  0  0  0  0  0  0  0
   -2.1291    2.1133    0.5604 H   0  0  0  0  0  0  0  0  0  0  0  0
   -1.2139    1.7745   -0.9021 H   0  0  0  0  0  0  0  0  0  0  0  0
    0.0160    1.7558    1.8945 H   0  0  0  0  0  0  0  0  0  0  0  0
   -0.1863    3.2003    0.9384 H   0  0  0  0  0  0  0  0  0  0  0  0
    2.0929   -2.8965    1.7008 H   0  0  0  0  0  0  0  0  0  0  0  0
    0.8563   -3.5250    0.6005 H   0  0  0  0  0  0  0  0  0  0  0  0
    2.5691   -3.8201    0.2675 H   0  0  0  0  0  0  0  0  0  0  0  0
   -3.9581   -0.4173   -1.9908 H   0  0  0  0  0  0  0  0  0  0  0  0
   -2.9050    0.9787   -1.8777 H   0  0  0  0  0  0  0  0  0  0  0  0
   -2.2566   -0.6479   -2.2206 H   0  0  0  0  0  0  0  0  0  0  0  0
   -3.8260    0.2632    1.7221 H   0  0  0  0  0  0  0  0  0  0  0  0
   -4.9481   -0.1085    0.4328 H   0  0  0  0  0  0  0  0  0  0  0  0
   -4.0662    1.4108    0.3819 H   0  0  0  0  0  0  0  0  0  0  0  0
    2.8923    2.8594   -0.8789 H   0  0  0  0  0  0  0  0  0  0  0  0
    2.3201    3.6447    0.5996 H   0  0  0  0  0  0  0  0  0  0  0  0
    1.3574    3.7126   -0.8927 H   0  0  0  0  0  0  0  0  0  0  0  0
   -3.9008   -2.0317   -0.2859 H   0  0  0  0  0  0  0  0  0  0  0  0
  1 10  1  0  0  0  0
  1 42  1  0  0  0  0
  2  3  1  0  0  0  0
  2  4  1  0  0  0  0
  2  6  1  0  0  0  0
  2 17  1  0  0  0  0
  3  7  1  0  0  0  0
  3 13  1  0  0  0  0
  3 18  1  0  0  0  0
  4  5  1  0  0  0  0
  4 19  1  0  0  0  0
  4 20  1  0  0  0  0
  5  9  1  0  0  0  0
  5 10  1  0  0  0  0
  5 21  1  0  0  0  0
  6  8  1  0  0  0  0
  6 11  2  0  0  0  0
  7  8  1  0  0  0  0
  7 22  1  0  0  0  0
  7 23  1  0  0  0  0
  8 24  1  0  0  0  0
  8 25  1  0  0  0  0
  9 12  1  0  0  0  0
  9 26  1  0  0  0  0
  9 27  1  0  0  0  0
 10 14  1  0  0  0  0
 10 15  1  0  0  0  0
 11 12  1  0  0  0  0
 11 16  1  0  0  0  0
 12 28  1  0  0  0  0
 12 29  1  0  0  0  0
 13 30  1  0  0  0  0
 13 31  1  0  0  0  0
 13 32  1  0  0  0  0
 14 33  1  0  0  0  0
 14 34  1  0  0  0  0
 14 35  1  0  0  0  0
 15 36  1  0  0  0  0
 15 37  1  0  0  0  0
 15 38  1  0  0  0  0
 16 39  1  0  0  0  0
 16 40  1  0  0  0  0
 16 41  1  0  0  0  0
M  END
> <PUBCHEM_COMPOUND_CID>
90785

> <PUBCHEM_CONFORMER_RMSD>
0.6

> <PUBCHEM_CONFORMER_DIVERSEORDER>
4
35
12
25
29
31
18
7
2
28
30
13
9
27
32
34
11
26
10
8
21
24
19
15
14
17
3
16
20
1
23
6
5
33
22

> <PUBCHEM_MMFF94_PARTIAL_CHARGES>
9
1 -0.68
10 0.28
11 -0.28
12 0.14
16 0.14
2 0.14
42 0.4
6 -0.28
8 0.14

> <PUBCHEM_EFFECTIVE_ROTOR_COUNT>
2.4

> <PUBCHEM_PHARMACOPHORE_FEATURES>
5
1 1 acceptor
1 1 donor
3 10 14 15 hydrophobe
5 2 3 6 7 8 rings
7 2 4 5 6 9 11 12 rings

> <PUBCHEM_HEAVY_ATOM_COUNT>
16

> <PUBCHEM_ATOM_DEF_STEREO_COUNT>
0

> <PUBCHEM_ATOM_UDEF_STEREO_COUNT>
3

> <PUBCHEM_BOND_DEF_STEREO_COUNT>
0

> <PUBCHEM_BOND_UDEF_STEREO_COUNT>
0

> <PUBCHEM_ISOTOPIC_ATOM_COUNT>
0

> <PUBCHEM_COMPONENT_COUNT>
1

> <PUBCHEM_CACTVS_TAUTO_COUNT>
1

> <PUBCHEM_CONFORMER_ID>
000162A100000004

> <PUBCHEM_MMFF94_ENERGY>
43.7899

> <PUBCHEM_FEATURE_SELFOVERLAP>
25.396

> <PUBCHEM_SHAPE_FINGERPRINT>
10967382 1 18410859828236703842
11471102 20 18410009944497986773
12553582 1 18339643313259914858
13140716 1 18267302221478814290
13221675 6 18342182141600922703
13380535 76 17979916339288272024
13380536 305 18337961202619809876
13897977 150 18265332983258243005
14178342 30 18270104833752978875
15375462 189 18410863126908743939
15442244 35 18268997479530822265
15536298 74 18202286947940857512
16945 1 18409162212237314984
18186145 218 18336265742435703381
193761 8 17762622094063593490
19422 9 18130513041040602517
20201158 50 18407759231173981283
20559304 39 18410858720277507810
20645477 70 18271524299243692423
21267235 1 18340500953778068802
21524375 3 17684361037909899688
21634736 98 18270965768605851358
21639500 275 18337380647168031757
22112679 90 18053388703958489560
221490 88 18264779928783183090
2255824 54 18410858801823779684
22802520 49 18114166511355311821
23114952 82 18186791483120307365
23184049 29 17905886973004167970
2334 1 17907295803554255626
23388829 49 18272086067722423768
23402539 116 18343016645610535166
23419403 2 17264632090285226416
23463225 33 18268997492204480491
23526113 38 17968099689923772003
23552423 10 18411701019130295425
23557571 272 17914898630556119078
23598291 2 18059573646022703813
25 1 18265055906438852332
257057 1 18121488060431384514
2748010 2 15674914679517676868
34934 24 18341326682704576585
352729 6 17114660177393380472
6338986 31 18195791982268107978
7364860 26 18342175604740059936
74978 22 18412259545531119983
7832392 63 18196658401636261048
81228 2 17765429846785571736
84936 182 17986957551117060584

> <PUBCHEM_SHAPE_MULTIPOLES>
323.4
5.74
3.02
0.94
3.44
0.52
0.21
-1.66
0.61
-2.41
-0.46
0.47
0.01
-0.45

> <PUBCHEM_SHAPE_SELFOVERLAP>
660.083

> <PUBCHEM_SHAPE_VOLUME>
189.6

> <PUBCHEM_COORDINATE_TYPE>
2
5
10

$$$$
