MODEL 1
REMARK VINA RESULT:    -7.575      0.000      0.000
REMARK INTER + INTRA:         -21.859
REMARK INTER:                 -18.203
REMARK INTRA:                  -3.656
REMARK UNBOUND:                -3.656
REMARK WARNING: 32 MAX_TORS EXCEEDED!!!
REMARK  35 active torsions:
REMARK  status: ('A' for Active; 'I' for Inactive)
REMARK    1  A    between atoms: C_66  and  O_7 
REMARK    2  A    between atoms: C_71  and  O_9 
REMARK    3  A    between atoms: C_41  and  N_18 
REMARK       I    between atoms: N_18  and  C_58 
REMARK    4  A    between atoms: C_51  and  N_21 
REMARK       I    between atoms: N_21  and  C_70 
REMARK    5  A    between atoms: C_61  and  N_23 
REMARK       I    between atoms: N_23  and  C_75 
REMARK    6  A    between atoms: C_67  and  N_24 
REMARK       I    between atoms: N_24  and  C_77 
REMARK    7  A    between atoms: N_25  and  C_57 
REMARK    8  A    between atoms: N_26  and  C_63 
REMARK    9  A    between atoms: N_27  and  C_74 
REMARK   10  A    between atoms: N_28  and  C_76 
REMARK   11  A    between atoms: N_29  and  C_81 
REMARK   12  A    between atoms: C_30  and  C_32 
REMARK   13  A    between atoms: C_31  and  C_33 
REMARK   14  A    between atoms: C_32  and  C_34 
REMARK   15  A    between atoms: C_33  and  C_35 
REMARK   16  A    between atoms: C_37  and  C_44 
REMARK   17  A    between atoms: C_39  and  C_48 
REMARK   18  A    between atoms: C_44  and  C_57 
REMARK   19  A    between atoms: C_48  and  C_63 
REMARK   20  A    between atoms: C_50  and  C_60 
REMARK   21  A    between atoms: C_51  and  C_58 
REMARK   22  A    between atoms: C_51  and  C_62 
REMARK   23  A    between atoms: C_54  and  C_55 
REMARK   24  A    between atoms: C_54  and  C_65 
REMARK   25  A    between atoms: C_55  and  C_59 
REMARK   26  A    between atoms: C_66  and  C_56 
REMARK   27  A    between atoms: C_59  and  C_69 
REMARK   28  A    between atoms: C_60  and  C_74 
REMARK   29  A    between atoms: C_61  and  C_70 
REMARK   30  A    between atoms: C_71  and  C_61 
REMARK   31  A    between atoms: C_62  and  C_76 
REMARK   32  A    between atoms: C_67  and  C_73 
REMARK   33  A    between atoms: C_67  and  C_75 
REMARK   34  A    between atoms: C_69  and  C_77 
REMARK   35  A    between atoms: C_73  and  C_81 
ROOT
ATOM      1  O   UNL d   1      -2.132  33.319  -3.637  0.00  0.00    -0.278 OA
ATOM      2  O   UNL d   1      -2.511  35.596   1.960  0.00  0.00    -0.272 OA
ATOM      3  O   UNL d   1      -1.756  31.729  -8.021  0.00  0.00    -0.271 OA
ATOM      4  O   UNL d   1       1.664  33.483  -4.032  0.00  0.00    -0.271 OA
ATOM      5  O   UNL d   1      -1.885  31.191  -0.846  0.00  0.00    -0.271 OA
ATOM      6  O   UNL d   1      -4.879  36.475  -2.205  0.00  0.00    -0.271 OA
ATOM      7  O   UNL d   1       0.398  38.308   0.117  0.00  0.00    -0.271 OA
ATOM      8  N   UNL d   1      -2.023  34.691  -2.154  0.00  0.00    -0.248 NA
ATOM      9  N   UNL d   1      -0.796  33.659  -7.117  0.00  0.00    -0.347 N 
ATOM     10  N   UNL d   1      -2.936  33.399   1.828  0.00  0.00    -0.346 N 
ATOM     11  N   UNL d   1      -0.396  32.933  -4.965  0.00  0.00    -0.346 N 
ATOM     12  N   UNL d   1      -3.535  32.494  -1.616  0.00  0.00    -0.346 N 
ATOM     13  N   UNL d   1       1.082  36.461  -1.006  0.00  0.00    -0.359 N 
ATOM     14  N   UNL d   1      -2.741  36.517  -0.944  0.00  0.00    -0.344 N 
ATOM     15  C   UNL d   1      -1.019  34.840  -5.803  0.00  0.00     0.171 C 
ATOM     16  C   UNL d   1      -2.859  34.522  -0.331  0.00  0.00     0.155 C 
ATOM     17  C   UNL d   1      -1.904  34.550  -3.899  0.00  0.00     0.221 C 
ATOM     18  C   UNL d   1      -2.047  32.654  -5.802  0.00  0.00     0.178 C 
ATOM     19  C   UNL d   1      -2.700  34.617   1.245  0.00  0.00     0.236 C 
ATOM     20  C   UNL d   1      -3.114  32.138   1.097  0.00  0.00     0.178 C 
ATOM     21  C   UNL d   1      -1.463  32.463  -7.109  0.00  0.00     0.241 C 
ATOM     22  C   UNL d   1       0.468  35.891  -4.326  0.00  0.00     0.178 C 
ATOM     23  C   UNL d   1       0.059  36.382  -3.009  0.00  0.00     0.054 C 
ATOM     24  C   UNL d   1       0.609  33.982  -4.470  0.00  0.00     0.241 C 
ATOM     25  C   UNL d   1      -4.426  33.798  -1.770  0.00  0.00     0.178 C 
ATOM     26  C   UNL d   1      -2.876  31.874  -0.538  0.00  0.00     0.241 C 
ATOM     27  C   UNL d   1       0.595  35.531  -1.957  0.00  0.00     0.125 C 
ATOM     28  C   UNL d   1      -1.171  36.393   0.044  0.00  0.00     0.205 C 
ATOM     29  C   UNL d   1      -3.996  35.709  -1.777  0.00  0.00     0.241 C 
ATOM     30  C   UNL d   1       0.122  37.197  -0.320  0.00  0.00     0.243 C 
ATOM     31  H   UNL d   1      -1.649  33.724  -2.096  0.00  0.00     0.131 HD
ATOM     32  H   UNL d   1      -0.521  33.925  -8.057  0.00  0.00     0.163 HD
ATOM     33  H   UNL d   1      -2.720  33.425   2.821  0.00  0.00     0.163 HD
ATOM     34  H   UNL d   1       0.095  32.037  -5.006  0.00  0.00     0.163 HD
ATOM     35  H   UNL d   1      -3.086  32.232  -2.492  0.00  0.00     0.163 HD
ATOM     36  H   UNL d   1       1.961  36.916  -1.204  0.00  0.00     0.162 HD
ATOM     37  H   UNL d   1      -3.136  37.422  -0.708  0.00  0.00     0.163 HD
ENDROOT
BRANCH  22  38
ATOM     38  N   UNL d   1      -0.484  37.046  -5.123  0.00  0.00    -0.346 N 
ATOM     39  C   UNL d   1      -0.534  38.419  -5.386  0.00  0.00     0.241 C 
ATOM     40  O   UNL d   1      -0.036  39.275  -4.674  0.00  0.00    -0.271 OA
ATOM     41  H   UNL d   1      -1.460  36.865  -4.978  0.00  0.00     0.163 HD
BRANCH  39  42
ATOM     42  C   UNL d   1      -1.341  38.714  -6.781  0.00  0.00     0.178 C 
BRANCH  42  43
ATOM     43  N   UNL d   1      -0.839  38.498  -8.154  0.00  0.00    -0.346 N 
ATOM     44  C   UNL d   1       0.360  39.053  -8.575  0.00  0.00     0.243 C 
ATOM     45  O   UNL d   1       1.092  39.664  -7.797  0.00  0.00    -0.271 OA
ATOM     46  H   UNL d   1      -1.543  38.549  -8.890  0.00  0.00     0.163 HD
BRANCH  44  47
ATOM     47  C   UNL d   1       0.749  38.749 -10.071  0.00  0.00     0.205 C 
BRANCH  47  48
ATOM     48  N   UNL d   1       0.733  37.319 -10.670  0.00  0.00    -0.344 N 
ATOM     49  C   UNL d   1      -0.270  36.322 -10.622  0.00  0.00     0.241 C 
ATOM     50  O   UNL d   1      -1.356  36.560 -10.096  0.00  0.00    -0.271 OA
ATOM     51  H   UNL d   1       1.679  36.950 -10.728  0.00  0.00     0.163 HD
BRANCH  49  52
ATOM     52  C   UNL d   1       0.076  34.862 -11.372  0.00  0.00     0.178 C 
BRANCH  52  53
ATOM     53  N   UNL d   1       1.509  34.486 -11.948  0.00  0.00    -0.348 N 
ATOM     54  C   UNL d   1       1.845  33.553 -12.943  0.00  0.00     0.218 C 
ATOM     55  O   UNL d   1       1.036  32.732 -13.378  0.00  0.00    -0.274 OA
ATOM     56  H   UNL d   1       2.265  35.104 -11.682  0.00  0.00     0.163 HD
BRANCH  54  57
ATOM     57  C   UNL d   1       3.264  33.607 -13.633  0.00  0.00     0.103 C 
BRANCH  57  58
ATOM     58  C   UNL d   1       3.411  34.013 -15.118  0.00  0.00     0.010 C 
BRANCH  58  59
ATOM     59  C   UNL d   1       4.215  32.984 -15.934  0.00  0.00     0.005 C 
BRANCH  59  60
ATOM     60  C   UNL d   1       3.529  31.652 -16.339  0.00  0.00    -0.019 C 
ATOM     61  C   UNL d   1       2.027  31.916 -16.582  0.00  0.00     0.010 C 
BRANCH  60  62
ATOM     62  C   UNL d   1       3.776  30.457 -15.394  0.00  0.00    -0.000 C 
ATOM     63  C   UNL d   1       2.568  29.834 -14.711  0.00  0.00     0.005 C 
ENDBRANCH  60  62
ENDBRANCH  59  60
ENDBRANCH  58  59
ENDBRANCH  57  58
ENDBRANCH  54  57
ENDBRANCH  52  53
BRANCH  52  64
ATOM     64  C   UNL d   1      -0.490  33.699 -10.518  0.00  0.00     0.064 C 
BRANCH  64  65
ATOM     65  C   UNL d   1      -1.505  32.750 -11.166  0.00  0.00     0.269 C 
BRANCH  65  66
ATOM     66  N   UNL d   1      -0.961  31.397 -11.246  0.00  0.00     0.078 N 
ATOM     67  H   UNL d   1      -0.160  31.366 -11.873  0.00  0.00     0.312 HD
ATOM     68  H   UNL d   1      -0.634  31.080 -10.333  0.00  0.00     0.312 HD
ENDBRANCH  65  66
ENDBRANCH  64  65
ENDBRANCH  52  64
ENDBRANCH  49  52
ENDBRANCH  47  48
BRANCH  47  69
ATOM     69  C   UNL d   1      -0.240  39.658 -10.913  0.00  0.00     0.146 C 
ATOM     70  C   UNL d   1      -0.569  41.058 -10.342  0.00  0.00     0.042 C 
BRANCH  69  71
ATOM     71  O   UNL d   1       0.306  39.807 -12.235  0.00  0.00    -0.393 OA
ATOM     72  H   UNL d   1       1.047  40.436 -12.175  0.00  0.00     0.210 HD
ENDBRANCH  69  71
ENDBRANCH  47  69
ENDBRANCH  44  47
ENDBRANCH  42  43
BRANCH  42  73
ATOM     73  C   UNL d   1      -2.683  37.967  -6.726  0.00  0.00     0.064 C 
BRANCH  73  74
ATOM     74  C   UNL d   1      -3.717  38.576  -5.815  0.00  0.00     0.269 C 
BRANCH  74  75
ATOM     75  N   UNL d   1      -3.725  40.012  -5.994  0.00  0.00     0.078 N 
ATOM     76  H   UNL d   1      -3.881  40.472  -5.099  0.00  0.00     0.312 HD
ATOM     77  H   UNL d   1      -4.496  40.280  -6.607  0.00  0.00     0.312 HD
ENDBRANCH  74  75
ENDBRANCH  73  74
ENDBRANCH  42  73
ENDBRANCH  39  42
ENDBRANCH  22  38
BRANCH  18  78
ATOM     78  C   UNL d   1      -3.218  33.971  -6.320  0.00  0.00     0.064 C 
BRANCH  78  79
ATOM     79  C   UNL d   1      -4.692  34.414  -6.138  0.00  0.00     0.269 C 
BRANCH  79  80
ATOM     80  N   UNL d   1      -5.615  33.337  -5.966  0.00  0.00     0.078 N 
ATOM     81  H   UNL d   1      -5.787  33.195  -4.964  0.00  0.00     0.312 HD
ATOM     82  H   UNL d   1      -5.170  32.484  -6.274  0.00  0.00     0.312 HD
ENDBRANCH  79  80
ENDBRANCH  78  79
ENDBRANCH  18  78
BRANCH  28  83
ATOM     83  C   UNL d   1      -0.166  34.990   0.776  0.00  0.00     0.146 C 
ATOM     84  C   UNL d   1       0.211  35.103   2.270  0.00  0.00     0.042 C 
BRANCH  83  85
ATOM     85  O   UNL d   1      -0.378  33.587   0.645  0.00  0.00    -0.393 OA
ATOM     86  H   UNL d   1      -1.314  33.399   0.459  0.00  0.00     0.210 HD
ENDBRANCH  83  85
ENDBRANCH  28  83
BRANCH  15  87
ATOM     87  C   UNL d   1       0.321  35.570  -6.933  0.00  0.00     0.038 C 
BRANCH  87  88
ATOM     88  C   UNL d   1       1.962  35.668  -7.443  0.00  0.00    -0.020 C 
ATOM     89  C   UNL d   1       2.369  34.498  -8.348  0.00  0.00     0.009 C 
ATOM     90  C   UNL d   1       2.956  36.852  -7.656  0.00  0.00     0.009 C 
ENDBRANCH  87  88
ENDBRANCH  15  87
BRANCH  25  91
ATOM     91  C   UNL d   1      -5.830  33.438  -2.337  0.00  0.00     0.064 C 
BRANCH  91  92
ATOM     92  C   UNL d   1      -6.414  32.287  -1.579  0.00  0.00     0.269 C 
BRANCH  92  93
ATOM     93  N   UNL d   1      -7.486  32.699  -0.693  0.00  0.00     0.078 N 
ATOM     94  H   UNL d   1      -7.144  32.797   0.264  0.00  0.00     0.312 HD
ATOM     95  H   UNL d   1      -7.838  33.626  -0.943  0.00  0.00     0.312 HD
ENDBRANCH  92  93
ENDBRANCH  91  92
ENDBRANCH  25  91
BRANCH  16  96
ATOM     96  C   UNL d   1      -4.610  34.961   0.520  0.00  0.00     0.033 C 
BRANCH  96  97
ATOM     97  C   UNL d   1      -5.448  36.468   1.099  0.00  0.00    -0.021 C 
ATOM     98  C   UNL d   1      -6.933  36.370   0.610  0.00  0.00     0.009 C 
ATOM     99  C   UNL d   1      -5.704  37.004   2.562  0.00  0.00     0.009 C 
ENDBRANCH  96  97
ENDBRANCH  16  96
BRANCH  20 100
ATOM    100  C   UNL d   1      -4.411  31.581   1.594  0.00  0.00     0.064 C 
BRANCH 100 101
ATOM    101  C   UNL d   1      -4.659  32.085   2.992  0.00  0.00     0.269 C 
BRANCH 101 102
ATOM    102  N   UNL d   1      -5.568  31.115   3.639  0.00  0.00     0.078 N 
ATOM    103  H   UNL d   1      -5.423  30.203   3.191  0.00  0.00     0.312 HD
ATOM    104  H   UNL d   1      -5.138  30.951   4.592  0.00  0.00     0.312 HD
ENDBRANCH 101 102
ENDBRANCH 100 101
ENDBRANCH  20 100
TORSDOF 35
                                                                                                                                                                                                                           
ENDMDL
MODEL 2
REMARK VINA RESULT:    -7.504      3.009      6.157
REMARK INTER + INTRA:         -21.689
REMARK INTER:                 -19.738
REMARK INTRA:                  -1.951
REMARK UNBOUND:                -3.656
REMARK WARNING: 32 MAX_TORS EXCEEDED!!!
REMARK  35 active torsions:
REMARK  status: ('A' for Active; 'I' for Inactive)
REMARK    1  A    between atoms: C_66  and  O_7 
REMARK    2  A    between atoms: C_71  and  O_9 
REMARK    3  A    between atoms: C_41  and  N_18 
REMARK       I    between atoms: N_18  and  C_58 
REMARK    4  A    between atoms: C_51  and  N_21 
REMARK       I    between atoms: N_21  and  C_70 
REMARK    5  A    between atoms: C_61  and  N_23 
REMARK       I    between atoms: N_23  and  C_75 
REMARK    6  A    between atoms: C_67  and  N_24 
REMARK       I    between atoms: N_24  and  C_77 
REMARK    7  A    between atoms: N_25  and  C_57 
REMARK    8  A    between atoms: N_26  and  C_63 
REMARK    9  A    between atoms: N_27  and  C_74 
REMARK   10  A    between atoms: N_28  and  C_76 
REMARK   11  A    between atoms: N_29  and  C_81 
REMARK   12  A    between atoms: C_30  and  C_32 
REMARK   13  A    between atoms: C_31  and  C_33 
REMARK   14  A    between atoms: C_32  and  C_34 
REMARK   15  A    between atoms: C_33  and  C_35 
REMARK   16  A    between atoms: C_37  and  C_44 
REMARK   17  A    between atoms: C_39  and  C_48 
REMARK   18  A    between atoms: C_44  and  C_57 
REMARK   19  A    between atoms: C_48  and  C_63 
REMARK   20  A    between atoms: C_50  and  C_60 
REMARK   21  A    between atoms: C_51  and  C_58 
REMARK   22  A    between atoms: C_51  and  C_62 
REMARK   23  A    between atoms: C_54  and  C_55 
REMARK   24  A    between atoms: C_54  and  C_65 
REMARK   25  A    between atoms: C_55  and  C_59 
REMARK   26  A    between atoms: C_66  and  C_56 
REMARK   27  A    between atoms: C_59  and  C_69 
REMARK   28  A    between atoms: C_60  and  C_74 
REMARK   29  A    between atoms: C_61  and  C_70 
REMARK   30  A    between atoms: C_71  and  C_61 
REMARK   31  A    between atoms: C_62  and  C_76 
REMARK   32  A    between atoms: C_67  and  C_73 
REMARK   33  A    between atoms: C_67  and  C_75 
REMARK   34  A    between atoms: C_69  and  C_77 
REMARK   35  A    between atoms: C_73  and  C_81 
ROOT
ATOM      1  O   UNL d   1      -2.203  37.420  -3.746  0.00  0.00    -0.278 OA
ATOM      2  O   UNL d   1      -2.719  31.778  -1.610  0.00  0.00    -0.272 OA
ATOM      3  O   UNL d   1      -1.729  41.705  -5.564  0.00  0.00    -0.271 OA
ATOM      4  O   UNL d   1      -4.477  37.055  -6.793  0.00  0.00    -0.271 OA
ATOM      5  O   UNL d   1      -4.812  36.603  -1.532  0.00  0.00    -0.271 OA
ATOM      6  O   UNL d   1       1.060  34.742  -2.423  0.00  0.00    -0.271 OA
ATOM      7  O   UNL d   1      -2.221  31.037  -5.901  0.00  0.00    -0.271 OA
ATOM      8  N   UNL d   1      -1.994  35.408  -3.679  0.00  0.00    -0.248 NA
ATOM      9  N   UNL d   1      -1.507  39.655  -6.666  0.00  0.00    -0.347 N 
ATOM     10  N   UNL d   1      -3.771  33.329  -0.380  0.00  0.00    -0.346 N 
ATOM     11  N   UNL d   1      -3.081  38.417  -5.524  0.00  0.00    -0.346 N 
ATOM     12  N   UNL d   1      -2.584  36.610  -1.310  0.00  0.00    -0.346 N 
ATOM     13  N   UNL d   1      -3.401  32.957  -6.149  0.00  0.00    -0.359 N 
ATOM     14  N   UNL d   1      -0.838  33.440  -3.353  0.00  0.00    -0.344 N 
ATOM     15  C   UNL d   1      -1.130  37.942  -6.357  0.00  0.00     0.171 C 
ATOM     16  C   UNL d   1      -2.261  34.251  -2.054  0.00  0.00     0.155 C 
ATOM     17  C   UNL d   1      -1.474  36.807  -4.601  0.00  0.00     0.221 C 
ATOM     18  C   UNL d   1      -1.825  39.475  -4.624  0.00  0.00     0.178 C 
ATOM     19  C   UNL d   1      -2.929  32.968  -1.400  0.00  0.00     0.236 C 
ATOM     20  C   UNL d   1      -4.160  34.708  -0.059  0.00  0.00     0.178 C 
ATOM     21  C   UNL d   1      -1.820  40.504  -5.638  0.00  0.00     0.241 C 
ATOM     22  C   UNL d   1      -2.042  35.934  -7.155  0.00  0.00     0.178 C 
ATOM     23  C   UNL d   1      -1.979  34.682  -6.399  0.00  0.00     0.054 C 
ATOM     24  C   UNL d   1      -3.285  37.228  -6.474  0.00  0.00     0.241 C 
ATOM     25  C   UNL d   1      -1.105  36.035  -1.326  0.00  0.00     0.178 C 
ATOM     26  C   UNL d   1      -3.841  36.084  -0.957  0.00  0.00     0.241 C 
ATOM     27  C   UNL d   1      -3.288  34.340  -5.865  0.00  0.00     0.125 C 
ATOM     28  C   UNL d   1      -2.354  32.534  -3.933  0.00  0.00     0.205 C 
ATOM     29  C   UNL d   1      -0.183  34.770  -2.502  0.00  0.00     0.241 C 
ATOM     30  C   UNL d   1      -2.566  32.112  -5.426  0.00  0.00     0.243 C 
ATOM     31  H   UNL d   1      -2.877  35.919  -3.487  0.00  0.00     0.131 HD
ATOM     32  H   UNL d   1      -1.151  40.162  -7.471  0.00  0.00     0.163 HD
ATOM     33  H   UNL d   1      -4.290  32.525  -0.038  0.00  0.00     0.163 HD
ATOM     34  H   UNL d   1      -3.958  38.941  -5.500  0.00  0.00     0.163 HD
ATOM     35  H   UNL d   1      -2.704  37.376  -1.972  0.00  0.00     0.163 HD
ATOM     36  H   UNL d   1      -3.623  32.690  -7.097  0.00  0.00     0.162 HD
ATOM     37  H   UNL d   1      -0.096  32.747  -3.349  0.00  0.00     0.163 HD
ENDROOT
BRANCH  22  38
ATOM     38  N   UNL d   1      -0.362  35.952  -7.389  0.00  0.00    -0.346 N 
ATOM     39  C   UNL d   1       0.796  35.272  -7.000  0.00  0.00     0.241 C 
ATOM     40  O   UNL d   1       0.918  34.663  -5.950  0.00  0.00    -0.271 OA
ATOM     41  H   UNL d   1      -0.013  36.892  -7.396  0.00  0.00     0.163 HD
BRANCH  39  42
ATOM     42  C   UNL d   1       1.957  35.398  -8.149  0.00  0.00     0.178 C 
BRANCH  42  43
ATOM     43  N   UNL d   1       1.791  35.172  -9.600  0.00  0.00    -0.346 N 
ATOM     44  C   UNL d   1       1.644  33.893 -10.115  0.00  0.00     0.243 C 
ATOM     45  O   UNL d   1       1.552  32.912  -9.378  0.00  0.00    -0.271 OA
ATOM     46  H   UNL d   1       2.386  35.741 -10.202  0.00  0.00     0.163 HD
BRANCH  44  47
ATOM     47  C   UNL d   1       1.498  33.815 -11.682  0.00  0.00     0.205 C 
BRANCH  47  48
ATOM     48  N   UNL d   1       2.312  32.826 -12.555  0.00  0.00    -0.344 N 
ATOM     49  C   UNL d   1       2.992  33.038 -13.778  0.00  0.00     0.241 C 
ATOM     50  O   UNL d   1       3.051  34.164 -14.268  0.00  0.00    -0.271 OA
ATOM     51  H   UNL d   1       1.961  31.879 -12.436  0.00  0.00     0.163 HD
BRANCH  49  52
ATOM     52  C   UNL d   1       3.756  31.709 -14.459  0.00  0.00     0.178 C 
BRANCH  52  53
ATOM     53  N   UNL d   1       5.333  31.505 -14.463  0.00  0.00    -0.348 N 
ATOM     54  C   UNL d   1       6.154  30.980 -15.475  0.00  0.00     0.218 C 
ATOM     55  O   UNL d   1       5.697  30.406 -16.465  0.00  0.00    -0.274 OA
ATOM     56  H   UNL d   1       5.835  31.953 -13.707  0.00  0.00     0.163 HD
BRANCH  54  57
ATOM     57  C   UNL d   1       7.714  31.219 -15.432  0.00  0.00     0.103 C 
BRANCH  57  58
ATOM     58  C   UNL d   1       8.615  30.407 -14.472  0.00  0.00     0.010 C 
BRANCH  58  59
ATOM     59  C   UNL d   1       9.531  31.307 -13.621  0.00  0.00     0.005 C 
BRANCH  59  60
ATOM     60  C   UNL d   1      11.062  31.049 -13.645  0.00  0.00    -0.019 C 
ATOM     61  C   UNL d   1      11.785  32.360 -14.022  0.00  0.00     0.010 C 
BRANCH  60  62
ATOM     62  C   UNL d   1      11.524  29.850 -14.499  0.00  0.00    -0.000 C 
ATOM     63  C   UNL d   1      12.409  28.807 -13.833  0.00  0.00     0.005 C 
ENDBRANCH  60  62
ENDBRANCH  59  60
ENDBRANCH  58  59
ENDBRANCH  57  58
ENDBRANCH  54  57
ENDBRANCH  52  53
BRANCH  52  64
ATOM     64  C   UNL d   1       3.041  30.413 -13.999  0.00  0.00     0.064 C 
BRANCH  64  65
ATOM     65  C   UNL d   1       2.319  29.569 -15.057  0.00  0.00     0.269 C 
BRANCH  65  66
ATOM     66  N   UNL d   1       1.939  28.272 -14.502  0.00  0.00     0.078 N 
ATOM     67  H   UNL d   1       1.893  27.565 -15.234  0.00  0.00     0.312 HD
ATOM     68  H   UNL d   1       2.628  27.949 -13.822  0.00  0.00     0.312 HD
ENDBRANCH  65  66
ENDBRANCH  64  65
ENDBRANCH  52  64
ENDBRANCH  49  52
ENDBRANCH  47  48
BRANCH  47  69
ATOM     69  C   UNL d   1      -0.046  33.530 -11.905  0.00  0.00     0.146 C 
ATOM     70  C   UNL d   1      -0.460  32.063 -12.172  0.00  0.00     0.042 C 
BRANCH  69  71
ATOM     71  O   UNL d   1      -0.761  34.018 -10.757  0.00  0.00    -0.393 OA
ATOM     72  H   UNL d   1      -1.599  34.396 -11.075  0.00  0.00     0.210 HD
ENDBRANCH  69  71
ENDBRANCH  47  69
ENDBRANCH  44  47
ENDBRANCH  42  43
BRANCH  42  73
ATOM     73  C   UNL d   1       2.597  36.790  -8.033  0.00  0.00     0.064 C 
BRANCH  73  74
ATOM     74  C   UNL d   1       2.473  37.442  -6.681  0.00  0.00     0.269 C 
BRANCH  74  75
ATOM     75  N   UNL d   1       3.385  38.562  -6.605  0.00  0.00     0.078 N 
ATOM     76  H   UNL d   1       3.682  38.831  -7.540  0.00  0.00     0.312 HD
ATOM     77  H   UNL d   1       4.224  38.290  -6.090  0.00  0.00     0.312 HD
ENDBRANCH  74  75
ENDBRANCH  73  74
ENDBRANCH  42  73
ENDBRANCH  39  42
ENDBRANCH  22  38
BRANCH  18  78
ATOM     78  C   UNL d   1      -0.007  39.210  -4.628  0.00  0.00     0.064 C 
BRANCH  78  79
ATOM     79  C   UNL d   1       1.267  39.578  -3.827  0.00  0.00     0.269 C 
BRANCH  79  80
ATOM     80  N   UNL d   1       1.067  39.681  -2.415  0.00  0.00     0.078 N 
ATOM     81  H   UNL d   1       0.078  39.885  -2.229  0.00  0.00     0.312 HD
ATOM     82  H   UNL d   1       1.564  40.494  -2.081  0.00  0.00     0.312 HD
ENDBRANCH  79  80
ENDBRANCH  78  79
ENDBRANCH  18  78
BRANCH  28  83
ATOM     83  C   UNL d   1      -4.200  32.715  -3.659  0.00  0.00     0.146 C 
ATOM     84  C   UNL d   1      -4.969  31.451  -3.214  0.00  0.00     0.042 C 
BRANCH  83  85
ATOM     85  O   UNL d   1      -4.893  33.732  -2.942  0.00  0.00    -0.393 OA
ATOM     86  H   UNL d   1      -4.440  34.588  -3.039  0.00  0.00     0.210 HD
ENDBRANCH  83  85
ENDBRANCH  28  83
BRANCH  15  87
ATOM     87  C   UNL d   1      -1.118  38.143  -8.247  0.00  0.00     0.038 C 
BRANCH  87  88
ATOM     88  C   UNL d   1      -0.466  38.848  -9.675  0.00  0.00    -0.020 C 
ATOM     89  C   UNL d   1       0.007  37.799 -10.688  0.00  0.00     0.009 C 
ATOM     90  C   UNL d   1      -0.702  40.204 -10.410  0.00  0.00     0.009 C 
ENDBRANCH  87  88
ENDBRANCH  15  87
BRANCH  25  91
ATOM     91  C   UNL d   1      -0.172  36.902  -0.431  0.00  0.00     0.064 C 
BRANCH  91  92
ATOM     92  C   UNL d   1      -0.948  38.017   0.199  0.00  0.00     0.269 C 
BRANCH  92  93
ATOM     93  N   UNL d   1      -1.094  37.844   1.631  0.00  0.00     0.078 N 
ATOM     94  H   UNL d   1      -2.056  38.031   1.919  0.00  0.00     0.312 HD
ATOM     95  H   UNL d   1      -0.920  36.875   1.908  0.00  0.00     0.312 HD
ENDBRANCH  92  93
ENDBRANCH  91  92
ENDBRANCH  25  91
BRANCH  16  96
ATOM     96  C   UNL d   1      -1.151  33.585  -0.535  0.00  0.00     0.033 C 
BRANCH  96  97
ATOM     97  C   UNL d   1       0.340  32.561  -0.348  0.00  0.00    -0.021 C 
ATOM     98  C   UNL d   1       1.294  33.333   0.625  0.00  0.00     0.009 C 
ATOM     99  C   UNL d   1       0.520  31.104   0.234  0.00  0.00     0.009 C 
ENDBRANCH  96  97
ENDBRANCH  16  96
BRANCH  20 100
ATOM    100  C   UNL d   1      -3.842  34.873   1.393  0.00  0.00     0.064 C 
BRANCH 100 101
ATOM    101  C   UNL d   1      -4.888  34.160   2.210  0.00  0.00     0.269 C 
BRANCH 101 102
ATOM    102  N   UNL d   1      -6.193  34.745   1.835  0.00  0.00     0.078 N 
ATOM    103  H   UNL d   1      -6.131  35.047   0.856  0.00  0.00     0.312 HD
ATOM    104  H   UNL d   1      -6.839  33.912   1.759  0.00  0.00     0.312 HD
ENDBRANCH 101 102
ENDBRANCH 100 101
ENDBRANCH  20 100
TORSDOF 35
                                                                                                                                                                                                                           
ENDMDL
MODEL 3
REMARK VINA RESULT:    -7.287      2.554      6.419
REMARK INTER + INTRA:         -21.167
REMARK INTER:                 -18.811
REMARK INTRA:                  -2.355
REMARK UNBOUND:                -3.656
REMARK WARNING: 32 MAX_TORS EXCEEDED!!!
REMARK  35 active torsions:
REMARK  status: ('A' for Active; 'I' for Inactive)
REMARK    1  A    between atoms: C_66  and  O_7 
REMARK    2  A    between atoms: C_71  and  O_9 
REMARK    3  A    between atoms: C_41  and  N_18 
REMARK       I    between atoms: N_18  and  C_58 
REMARK    4  A    between atoms: C_51  and  N_21 
REMARK       I    between atoms: N_21  and  C_70 
REMARK    5  A    between atoms: C_61  and  N_23 
REMARK       I    between atoms: N_23  and  C_75 
REMARK    6  A    between atoms: C_67  and  N_24 
REMARK       I    between atoms: N_24  and  C_77 
REMARK    7  A    between atoms: N_25  and  C_57 
REMARK    8  A    between atoms: N_26  and  C_63 
REMARK    9  A    between atoms: N_27  and  C_74 
REMARK   10  A    between atoms: N_28  and  C_76 
REMARK   11  A    between atoms: N_29  and  C_81 
REMARK   12  A    between atoms: C_30  and  C_32 
REMARK   13  A    between atoms: C_31  and  C_33 
REMARK   14  A    between atoms: C_32  and  C_34 
REMARK   15  A    between atoms: C_33  and  C_35 
REMARK   16  A    between atoms: C_37  and  C_44 
REMARK   17  A    between atoms: C_39  and  C_48 
REMARK   18  A    between atoms: C_44  and  C_57 
REMARK   19  A    between atoms: C_48  and  C_63 
REMARK   20  A    between atoms: C_50  and  C_60 
REMARK   21  A    between atoms: C_51  and  C_58 
REMARK   22  A    between atoms: C_51  and  C_62 
REMARK   23  A    between atoms: C_54  and  C_55 
REMARK   24  A    between atoms: C_54  and  C_65 
REMARK   25  A    between atoms: C_55  and  C_59 
REMARK   26  A    between atoms: C_66  and  C_56 
REMARK   27  A    between atoms: C_59  and  C_69 
REMARK   28  A    between atoms: C_60  and  C_74 
REMARK   29  A    between atoms: C_61  and  C_70 
REMARK   30  A    between atoms: C_71  and  C_61 
REMARK   31  A    between atoms: C_62  and  C_76 
REMARK   32  A    between atoms: C_67  and  C_73 
REMARK   33  A    between atoms: C_67  and  C_75 
REMARK   34  A    between atoms: C_69  and  C_77 
REMARK   35  A    between atoms: C_73  and  C_81 
ROOT
ATOM      1  O   UNL d   1      -1.239  38.976  -4.225  0.00  0.00    -0.278 OA
ATOM      2  O   UNL d   1      -4.191  34.576  -1.295  0.00  0.00    -0.272 OA
ATOM      3  O   UNL d   1       1.037  42.265  -6.653  0.00  0.00    -0.271 OA
ATOM      4  O   UNL d   1      -3.883  39.729  -6.876  0.00  0.00    -0.271 OA
ATOM      5  O   UNL d   1      -3.445  39.774  -1.604  0.00  0.00    -0.271 OA
ATOM      6  O   UNL d   1       0.355  35.041  -2.982  0.00  0.00    -0.271 OA
ATOM      7  O   UNL d   1      -4.932  33.482  -5.474  0.00  0.00    -0.271 OA
ATOM      8  N   UNL d   1      -2.088  37.166  -3.913  0.00  0.00    -0.248 NA
ATOM      9  N   UNL d   1      -0.032  40.360  -7.486  0.00  0.00    -0.347 N 
ATOM     10  N   UNL d   1      -4.051  36.505  -0.162  0.00  0.00    -0.346 N 
ATOM     11  N   UNL d   1      -1.783  40.201  -5.994  0.00  0.00    -0.346 N 
ATOM     12  N   UNL d   1      -1.534  38.608  -1.673  0.00  0.00    -0.346 N 
ATOM     13  N   UNL d   1      -4.976  35.720  -5.826  0.00  0.00    -0.359 N 
ATOM     14  N   UNL d   1      -2.074  34.902  -3.475  0.00  0.00    -0.344 N 
ATOM     15  C   UNL d   1      -0.544  38.725  -6.999  0.00  0.00     0.171 C 
ATOM     16  C   UNL d   1      -2.614  36.405  -2.125  0.00  0.00     0.155 C 
ATOM     17  C   UNL d   1      -1.098  38.030  -5.076  0.00  0.00     0.221 C 
ATOM     18  C   UNL d   1      -0.023  40.473  -5.415  0.00  0.00     0.178 C 
ATOM     19  C   UNL d   1      -3.716  35.705  -1.223  0.00  0.00     0.236 C 
ATOM     20  C   UNL d   1      -3.608  37.894   0.016  0.00  0.00     0.178 C 
ATOM     21  C   UNL d   1       0.328  41.293  -6.551  0.00  0.00     0.241 C 
ATOM     22  C   UNL d   1      -2.486  37.471  -7.393  0.00  0.00     0.178 C 
ATOM     23  C   UNL d   1      -2.941  36.415  -6.488  0.00  0.00     0.054 C 
ATOM     24  C   UNL d   1      -2.737  39.259  -6.739  0.00  0.00     0.241 C 
ATOM     25  C   UNL d   1      -0.595  37.336  -1.801  0.00  0.00     0.178 C 
ATOM     26  C   UNL d   1      -2.795  38.847  -1.093  0.00  0.00     0.241 C 
ATOM     27  C   UNL d   1      -4.118  36.845  -5.749  0.00  0.00     0.125 C 
ATOM     28  C   UNL d   1      -3.916  34.912  -3.726  0.00  0.00     0.205 C 
ATOM     29  C   UNL d   1      -0.686  35.720  -2.904  0.00  0.00     0.241 C 
ATOM     30  C   UNL d   1      -4.581  34.597  -5.108  0.00  0.00     0.243 C 
ATOM     31  H   UNL d   1      -2.530  38.076  -3.680  0.00  0.00     0.131 HD
ATOM     32  H   UNL d   1       0.381  40.562  -8.391  0.00  0.00     0.163 HD
ATOM     33  H   UNL d   1      -4.838  36.116   0.350  0.00  0.00     0.163 HD
ATOM     34  H   UNL d   1      -2.243  41.112  -5.928  0.00  0.00     0.163 HD
ATOM     35  H   UNL d   1      -1.360  39.288  -2.411  0.00  0.00     0.163 HD
ATOM     36  H   UNL d   1      -5.471  35.568  -6.693  0.00  0.00     0.162 HD
ATOM     37  H   UNL d   1      -1.809  33.922  -3.472  0.00  0.00     0.163 HD
ENDROOT
BRANCH  22  38
ATOM     38  N   UNL d   1      -1.112  36.585  -7.842  0.00  0.00    -0.346 N 
ATOM     39  C   UNL d   1      -0.435  35.400  -7.534  0.00  0.00     0.241 C 
ATOM     40  O   UNL d   1      -0.478  34.844  -6.449  0.00  0.00    -0.271 OA
ATOM     41  H   UNL d   1      -0.329  37.193  -7.994  0.00  0.00     0.163 HD
BRANCH  39  42
ATOM     42  C   UNL d   1       0.410  34.861  -8.830  0.00  0.00     0.178 C 
BRANCH  42  43
ATOM     43  N   UNL d   1      -0.149  34.362 -10.104  0.00  0.00    -0.346 N 
ATOM     44  C   UNL d   1       0.506  33.389 -10.843  0.00  0.00     0.243 C 
ATOM     45  O   UNL d   1       1.524  32.840 -10.420  0.00  0.00    -0.271 OA
ATOM     46  H   UNL d   1      -0.551  35.073 -10.713  0.00  0.00     0.163 HD
BRANCH  44  47
ATOM     47  C   UNL d   1      -0.206  32.976 -12.186  0.00  0.00     0.205 C 
BRANCH  47  48
ATOM     48  N   UNL d   1       0.534  32.919 -13.547  0.00  0.00    -0.344 N 
ATOM     49  C   UNL d   1       1.623  33.686 -14.025  0.00  0.00     0.241 C 
ATOM     50  O   UNL d   1       2.171  34.509 -13.293  0.00  0.00    -0.271 OA
ATOM     51  H   UNL d   1      -0.096  32.596 -14.277  0.00  0.00     0.163 HD
BRANCH  49  52
ATOM     52  C   UNL d   1       2.153  33.361 -15.582  0.00  0.00     0.178 C 
BRANCH  52  53
ATOM     53  N   UNL d   1       3.547  33.862 -16.161  0.00  0.00    -0.348 N 
ATOM     54  C   UNL d   1       4.829  33.752 -15.598  0.00  0.00     0.218 C 
ATOM     55  O   UNL d   1       5.009  33.399 -14.432  0.00  0.00    -0.274 OA
ATOM     56  H   UNL d   1       3.538  34.160 -17.129  0.00  0.00     0.163 HD
BRANCH  54  57
ATOM     57  C   UNL d   1       6.109  33.965 -16.497  0.00  0.00     0.103 C 
BRANCH  57  58
ATOM     58  C   UNL d   1       6.914  32.758 -17.032  0.00  0.00     0.010 C 
BRANCH  58  59
ATOM     59  C   UNL d   1       6.049  31.492 -17.183  0.00  0.00     0.005 C 
BRANCH  59  60
ATOM     60  C   UNL d   1       5.508  31.122 -18.590  0.00  0.00    -0.019 C 
ATOM     61  C   UNL d   1       6.538  31.559 -19.654  0.00  0.00     0.010 C 
BRANCH  60  62
ATOM     62  C   UNL d   1       4.081  31.613 -18.909  0.00  0.00    -0.000 C 
ATOM     63  C   UNL d   1       3.936  32.944 -19.631  0.00  0.00     0.005 C 
ENDBRANCH  60  62
ENDBRANCH  59  60
ENDBRANCH  58  59
ENDBRANCH  57  58
ENDBRANCH  54  57
ENDBRANCH  52  53
BRANCH  52  64
ATOM     64  C   UNL d   1       1.943  31.857 -15.893  0.00  0.00     0.064 C 
BRANCH  64  65
ATOM     65  C   UNL d   1       2.710  30.829 -15.052  0.00  0.00     0.269 C 
BRANCH  65  66
ATOM     66  N   UNL d   1       1.781  29.934 -14.368  0.00  0.00     0.078 N 
ATOM     67  H   UNL d   1       2.166  29.625 -13.477  0.00  0.00     0.312 HD
ATOM     68  H   UNL d   1       0.902  30.409 -14.161  0.00  0.00     0.312 HD
ENDBRANCH  65  66
ENDBRANCH  64  65
ENDBRANCH  52  64
ENDBRANCH  49  52
ENDBRANCH  47  48
BRANCH  47  69
ATOM     69  C   UNL d   1      -0.799  31.539 -11.875  0.00  0.00     0.146 C 
ATOM     70  C   UNL d   1      -2.035  31.473 -10.947  0.00  0.00     0.042 C 
BRANCH  69  71
ATOM     71  O   UNL d   1      -1.118  30.907 -13.127  0.00  0.00    -0.393 OA
ATOM     72  H   UNL d   1      -2.065  30.685 -13.108  0.00  0.00     0.210 HD
ENDBRANCH  69  71
ENDBRANCH  47  69
ENDBRANCH  44  47
ENDBRANCH  42  43
BRANCH  42  73
ATOM     73  C   UNL d   1       1.413  35.952  -9.236  0.00  0.00     0.064 C 
BRANCH  73  74
ATOM     74  C   UNL d   1       2.729  35.916  -8.502  0.00  0.00     0.269 C 
BRANCH  74  75
ATOM     75  N   UNL d   1       3.051  34.547  -8.165  0.00  0.00     0.078 N 
ATOM     76  H   UNL d   1       3.423  34.067  -8.981  0.00  0.00     0.312 HD
ATOM     77  H   UNL d   1       2.202  34.050  -7.887  0.00  0.00     0.312 HD
ENDBRANCH  74  75
ENDBRANCH  73  74
ENDBRANCH  42  73
ENDBRANCH  39  42
ENDBRANCH  22  38
BRANCH  18  78
ATOM     78  C   UNL d   1       1.363  39.285  -5.617  0.00  0.00     0.064 C 
BRANCH  78  79
ATOM     79  C   UNL d   1       2.909  39.241  -5.725  0.00  0.00     0.269 C 
BRANCH  79  80
ATOM     80  N   UNL d   1       3.409  39.291  -7.063  0.00  0.00     0.078 N 
ATOM     81  H   UNL d   1       4.202  38.645  -7.152  0.00  0.00     0.312 HD
ATOM     82  H   UNL d   1       3.804  40.207  -7.221  0.00  0.00     0.312 HD
ENDBRANCH  79  80
ENDBRANCH  78  79
ENDBRANCH  18  78
BRANCH  28  83
ATOM     83  C   UNL d   1      -5.320  36.057  -3.244  0.00  0.00     0.146 C 
ATOM     84  C   UNL d   1      -6.496  35.433  -2.460  0.00  0.00     0.042 C 
BRANCH  83  85
ATOM     85  O   UNL d   1      -5.243  37.351  -2.652  0.00  0.00    -0.393 OA
ATOM     86  H   UNL d   1      -5.609  37.337  -1.750  0.00  0.00     0.210 HD
ENDBRANCH  83  85
ENDBRANCH  28  83
BRANCH  15  87
ATOM     87  C   UNL d   1      -0.772  38.799  -8.884  0.00  0.00     0.038 C 
BRANCH  87  88
ATOM     88  C   UNL d   1      -0.214  39.265 -10.444  0.00  0.00    -0.020 C 
ATOM     89  C   UNL d   1      -0.868  40.561 -10.941  0.00  0.00     0.009 C 
ATOM     90  C   UNL d   1       1.112  39.024 -11.230  0.00  0.00     0.009 C 
ENDBRANCH  87  88
ENDBRANCH  15  87
BRANCH  25  91
ATOM     91  C   UNL d   1       0.796  37.617  -1.160  0.00  0.00     0.064 C 
BRANCH  91  92
ATOM     92  C   UNL d   1       1.012  39.092  -1.018  0.00  0.00     0.269 C 
BRANCH  92  93
ATOM     93  N   UNL d   1       1.527  39.690  -2.235  0.00  0.00     0.078 N 
ATOM     94  H   UNL d   1       1.676  40.693  -2.107  0.00  0.00     0.312 HD
ATOM     95  H   UNL d   1       2.448  39.316  -2.472  0.00  0.00     0.312 HD
ENDBRANCH  92  93
ENDBRANCH  91  92
ENDBRANCH  25  91
BRANCH  16  96
ATOM     96  C   UNL d   1      -1.752  35.324  -0.686  0.00  0.00     0.033 C 
BRANCH  96  97
ATOM     97  C   UNL d   1      -1.208  33.601  -0.484  0.00  0.00    -0.021 C 
ATOM     98  C   UNL d   1      -1.424  33.237   1.024  0.00  0.00     0.009 C 
ATOM     99  C   UNL d   1      -1.748  32.269  -1.140  0.00  0.00     0.009 C 
ENDBRANCH  96  97
ENDBRANCH  16  96
BRANCH  20 100
ATOM    100  C   UNL d   1      -2.994  37.934   1.380  0.00  0.00     0.064 C 
BRANCH 100 101
ATOM    101  C   UNL d   1      -2.549  39.342   1.678  0.00  0.00     0.269 C 
BRANCH 101 102
ATOM    102  N   UNL d   1      -1.121  39.267   2.051  0.00  0.00     0.078 N 
ATOM    103  H   UNL d   1      -0.790  38.319   1.836  0.00  0.00     0.312 HD
ATOM    104  H   UNL d   1      -0.628  39.836   1.307  0.00  0.00     0.312 HD
ENDBRANCH 101 102
ENDBRANCH 100 101
ENDBRANCH  20 100
TORSDOF 35
                                                                                                                                                                                                                           
ENDMDL
MODEL 4
REMARK VINA RESULT:    -7.286      2.706      6.247
REMARK INTER + INTRA:         -21.165
REMARK INTER:                 -16.110
REMARK INTRA:                  -5.055
REMARK UNBOUND:                -3.656
REMARK WARNING: 32 MAX_TORS EXCEEDED!!!
REMARK  35 active torsions:
REMARK  status: ('A' for Active; 'I' for Inactive)
REMARK    1  A    between atoms: C_66  and  O_7 
REMARK    2  A    between atoms: C_71  and  O_9 
REMARK    3  A    between atoms: C_41  and  N_18 
REMARK       I    between atoms: N_18  and  C_58 
REMARK    4  A    between atoms: C_51  and  N_21 
REMARK       I    between atoms: N_21  and  C_70 
REMARK    5  A    between atoms: C_61  and  N_23 
REMARK       I    between atoms: N_23  and  C_75 
REMARK    6  A    between atoms: C_67  and  N_24 
REMARK       I    between atoms: N_24  and  C_77 
REMARK    7  A    between atoms: N_25  and  C_57 
REMARK    8  A    between atoms: N_26  and  C_63 
REMARK    9  A    between atoms: N_27  and  C_74 
REMARK   10  A    between atoms: N_28  and  C_76 
REMARK   11  A    between atoms: N_29  and  C_81 
REMARK   12  A    between atoms: C_30  and  C_32 
REMARK   13  A    between atoms: C_31  and  C_33 
REMARK   14  A    between atoms: C_32  and  C_34 
REMARK   15  A    between atoms: C_33  and  C_35 
REMARK   16  A    between atoms: C_37  and  C_44 
REMARK   17  A    between atoms: C_39  and  C_48 
REMARK   18  A    between atoms: C_44  and  C_57 
REMARK   19  A    between atoms: C_48  and  C_63 
REMARK   20  A    between atoms: C_50  and  C_60 
REMARK   21  A    between atoms: C_51  and  C_58 
REMARK   22  A    between atoms: C_51  and  C_62 
REMARK   23  A    between atoms: C_54  and  C_55 
REMARK   24  A    between atoms: C_54  and  C_65 
REMARK   25  A    between atoms: C_55  and  C_59 
REMARK   26  A    between atoms: C_66  and  C_56 
REMARK   27  A    between atoms: C_59  and  C_69 
REMARK   28  A    between atoms: C_60  and  C_74 
REMARK   29  A    between atoms: C_61  and  C_70 
REMARK   30  A    between atoms: C_71  and  C_61 
REMARK   31  A    between atoms: C_62  and  C_76 
REMARK   32  A    between atoms: C_67  and  C_73 
REMARK   33  A    between atoms: C_67  and  C_75 
REMARK   34  A    between atoms: C_69  and  C_77 
REMARK   35  A    between atoms: C_73  and  C_81 
ROOT
ATOM      1  O   UNL d   1      -2.214  36.279   0.195  0.00  0.00    -0.278 OA
ATOM      2  O   UNL d   1      -7.008  33.082  -1.663  0.00  0.00    -0.272 OA
ATOM      3  O   UNL d   1       1.431  38.899   1.515  0.00  0.00    -0.271 OA
ATOM      4  O   UNL d   1      -4.094  39.209   1.769  0.00  0.00    -0.271 OA
ATOM      5  O   UNL d   1      -3.737  33.963   2.361  0.00  0.00    -0.271 OA
ATOM      6  O   UNL d   1      -2.836  34.439  -3.778  0.00  0.00    -0.271 OA
ATOM      7  O   UNL d   1      -8.165  37.142  -2.841  0.00  0.00    -0.271 OA
ATOM      8  N   UNL d   1      -3.863  35.818  -0.882  0.00  0.00    -0.248 NA
ATOM      9  N   UNL d   1      -0.446  39.577   0.299  0.00  0.00    -0.347 N 
ATOM     10  N   UNL d   1      -5.923  32.186   0.082  0.00  0.00    -0.346 N 
ATOM     11  N   UNL d   1      -2.049  38.223   1.254  0.00  0.00    -0.346 N 
ATOM     12  N   UNL d   1      -2.676  33.734   0.403  0.00  0.00    -0.346 N 
ATOM     13  N   UNL d   1      -7.070  37.768  -0.958  0.00  0.00    -0.359 N 
ATOM     14  N   UNL d   1      -4.998  35.106  -2.758  0.00  0.00    -0.344 N 
ATOM     15  C   UNL d   1      -1.717  38.936  -0.772  0.00  0.00     0.171 C 
ATOM     16  C   UNL d   1      -4.716  33.999  -1.007  0.00  0.00     0.155 C 
ATOM     17  C   UNL d   1      -2.563  36.994  -0.807  0.00  0.00     0.221 C 
ATOM     18  C   UNL d   1      -0.398  37.541   0.694  0.00  0.00     0.178 C 
ATOM     19  C   UNL d   1      -6.028  33.111  -0.924  0.00  0.00     0.236 C 
ATOM     20  C   UNL d   1      -4.841  32.144   1.074  0.00  0.00     0.178 C 
ATOM     21  C   UNL d   1       0.328  38.737   1.053  0.00  0.00     0.241 C 
ATOM     22  C   UNL d   1      -4.024  39.330  -0.932  0.00  0.00     0.178 C 
ATOM     23  C   UNL d   1      -4.957  38.343  -1.476  0.00  0.00     0.054 C 
ATOM     24  C   UNL d   1      -3.343  38.923   0.816  0.00  0.00     0.241 C 
ATOM     25  C   UNL d   1      -2.506  33.628  -1.171  0.00  0.00     0.178 C 
ATOM     26  C   UNL d   1      -3.648  33.292   1.320  0.00  0.00     0.241 C 
ATOM     27  C   UNL d   1      -5.762  37.759  -0.413  0.00  0.00     0.125 C 
ATOM     28  C   UNL d   1      -6.581  35.506  -1.868  0.00  0.00     0.205 C 
ATOM     29  C   UNL d   1      -3.392  34.529  -2.668  0.00  0.00     0.241 C 
ATOM     30  C   UNL d   1      -7.303  36.888  -2.009  0.00  0.00     0.243 C 
ATOM     31  H   UNL d   1      -3.787  35.735   0.150  0.00  0.00     0.131 HD
ATOM     32  H   UNL d   1       0.020  40.463   0.133  0.00  0.00     0.163 HD
ATOM     33  H   UNL d   1      -6.803  31.696   0.218  0.00  0.00     0.163 HD
ATOM     34  H   UNL d   1      -1.988  38.307   2.272  0.00  0.00     0.163 HD
ATOM     35  H   UNL d   1      -2.176  34.533   0.789  0.00  0.00     0.163 HD
ATOM     36  H   UNL d   1      -7.567  38.647  -0.968  0.00  0.00     0.162 HD
ATOM     37  H   UNL d   1      -5.264  34.963  -3.728  0.00  0.00     0.163 HD
ENDROOT
BRANCH  22  38
ATOM     38  N   UNL d   1      -3.281  39.554  -2.441  0.00  0.00    -0.346 N 
ATOM     39  C   UNL d   1      -3.409  40.307  -3.613  0.00  0.00     0.241 C 
ATOM     40  O   UNL d   1      -4.462  40.763  -4.027  0.00  0.00    -0.271 OA
ATOM     41  H   UNL d   1      -2.998  38.676  -2.833  0.00  0.00     0.163 HD
BRANCH  39  42
ATOM     42  C   UNL d   1      -1.954  40.497  -4.341  0.00  0.00     0.178 C 
BRANCH  42  43
ATOM     43  N   UNL d   1      -1.468  39.786  -5.542  0.00  0.00    -0.346 N 
ATOM     44  C   UNL d   1      -1.298  38.410  -5.541  0.00  0.00     0.243 C 
ATOM     45  O   UNL d   1      -1.632  37.723  -4.575  0.00  0.00    -0.271 OA
ATOM     46  H   UNL d   1      -0.712  40.246  -6.047  0.00  0.00     0.163 HD
BRANCH  44  47
ATOM     47  C   UNL d   1      -0.754  37.802  -6.888  0.00  0.00     0.205 C 
BRANCH  47  48
ATOM     48  N   UNL d   1      -1.074  36.356  -7.348  0.00  0.00    -0.344 N 
ATOM     49  C   UNL d   1      -2.293  35.638  -7.316  0.00  0.00     0.241 C 
ATOM     50  O   UNL d   1      -3.326  36.187  -6.935  0.00  0.00    -0.271 OA
ATOM     51  H   UNL d   1      -0.247  35.769  -7.268  0.00  0.00     0.163 HD
BRANCH  49  52
ATOM     52  C   UNL d   1      -2.258  34.060  -7.882  0.00  0.00     0.178 C 
BRANCH  52  53
ATOM     53  N   UNL d   1      -1.409  33.596  -9.145  0.00  0.00    -0.348 N 
ATOM     54  C   UNL d   1      -1.806  32.801 -10.233  0.00  0.00     0.218 C 
ATOM     55  O   UNL d   1      -2.868  32.177 -10.242  0.00  0.00    -0.274 OA
ATOM     56  H   UNL d   1      -0.516  34.056  -9.265  0.00  0.00     0.163 HD
BRANCH  54  57
ATOM     57  C   UNL d   1      -0.939  32.778 -11.553  0.00  0.00     0.103 C 
BRANCH  57  58
ATOM     58  C   UNL d   1      -0.016  33.963 -11.917  0.00  0.00     0.010 C 
BRANCH  58  59
ATOM     59  C   UNL d   1       1.458  33.695 -11.561  0.00  0.00     0.005 C 
BRANCH  59  60
ATOM     60  C   UNL d   1       2.035  34.311 -10.259  0.00  0.00    -0.019 C 
ATOM     61  C   UNL d   1       1.858  33.301  -9.104  0.00  0.00     0.010 C 
BRANCH  60  62
ATOM     62  C   UNL d   1       1.517  35.720  -9.899  0.00  0.00    -0.000 C 
ATOM     63  C   UNL d   1       2.275  36.501  -8.836  0.00  0.00     0.005 C 
ENDBRANCH  60  62
ENDBRANCH  59  60
ENDBRANCH  58  59
ENDBRANCH  57  58
ENDBRANCH  54  57
ENDBRANCH  52  53
BRANCH  52  64
ATOM     64  C   UNL d   1      -2.039  33.091  -6.693  0.00  0.00     0.064 C 
BRANCH  64  65
ATOM     65  C   UNL d   1      -0.603  32.671  -6.355  0.00  0.00     0.269 C 
BRANCH  65  66
ATOM     66  N   UNL d   1      -0.270  33.046  -4.984  0.00  0.00     0.078 N 
ATOM     67  H   UNL d   1      -0.693  32.401  -4.319  0.00  0.00     0.312 HD
ATOM     68  H   UNL d   1       0.738  33.011  -4.830  0.00  0.00     0.312 HD
ENDBRANCH  65  66
ENDBRANCH  64  65
ENDBRANCH  52  64
ENDBRANCH  49  52
ENDBRANCH  47  48
BRANCH  47  69
ATOM     69  C   UNL d   1      -1.276  38.809  -7.996  0.00  0.00     0.146 C 
ATOM     70  C   UNL d   1      -0.889  38.505  -9.463  0.00  0.00     0.042 C 
BRANCH  69  71
ATOM     71  O   UNL d   1      -2.708  38.882  -7.895  0.00  0.00    -0.393 OA
ATOM     72  H   UNL d   1      -2.957  39.821  -7.961  0.00  0.00     0.210 HD
ENDBRANCH  69  71
ENDBRANCH  47  69
ENDBRANCH  44  47
ENDBRANCH  42  43
BRANCH  42  73
ATOM     73  C   UNL d   1      -1.769  41.989  -4.660  0.00  0.00     0.064 C 
BRANCH  73  74
ATOM     74  C   UNL d   1      -1.830  42.343  -6.124  0.00  0.00     0.269 C 
BRANCH  74  75
ATOM     75  N   UNL d   1      -2.936  43.248  -6.350  0.00  0.00     0.078 N 
ATOM     76  H   UNL d   1      -2.769  44.127  -5.865  0.00  0.00     0.312 HD
ATOM     77  H   UNL d   1      -3.793  42.851  -5.962  0.00  0.00     0.312 HD
ENDBRANCH  74  75
ENDBRANCH  73  74
ENDBRANCH  42  73
ENDBRANCH  39  42
ENDBRANCH  22  38
BRANCH  18  78
ATOM     78  C   UNL d   1       0.200  37.483  -1.042  0.00  0.00     0.064 C 
BRANCH  78  79
ATOM     79  C   UNL d   1       0.849  36.514  -2.063  0.00  0.00     0.269 C 
BRANCH  79  80
ATOM     80  N   UNL d   1      -0.067  35.947  -3.002  0.00  0.00     0.078 N 
ATOM     81  H   UNL d   1       0.287  36.099  -3.953  0.00  0.00     0.312 HD
ATOM     82  H   UNL d   1      -0.929  36.471  -2.962  0.00  0.00     0.312 HD
ENDBRANCH  79  80
ENDBRANCH  78  79
ENDBRANCH  18  78
BRANCH  28  83
ATOM     83  C   UNL d   1      -7.218  35.283  -0.120  0.00  0.00     0.146 C 
ATOM     84  C   UNL d   1      -8.601  34.613   0.042  0.00  0.00     0.042 C 
BRANCH  83  85
ATOM     85  O   UNL d   1      -6.525  34.775   1.017  0.00  0.00    -0.393 OA
ATOM     86  H   UNL d   1      -7.087  34.824   1.810  0.00  0.00     0.210 HD
ENDBRANCH  83  85
ENDBRANCH  28  83
BRANCH  15  87
ATOM     87  C   UNL d   1      -1.861  40.828  -0.871  0.00  0.00     0.038 C 
BRANCH  87  88
ATOM     88  C   UNL d   1      -2.443  42.322  -0.246  0.00  0.00    -0.020 C 
ATOM     89  C   UNL d   1      -1.355  43.401  -0.188  0.00  0.00     0.009 C 
ATOM     90  C   UNL d   1      -3.846  43.004  -0.217  0.00  0.00     0.009 C 
ENDBRANCH  87  88
ENDBRANCH  15  87
BRANCH  25  91
ATOM     91  C   UNL d   1      -1.169  32.916  -1.530  0.00  0.00     0.064 C 
BRANCH  91  92
ATOM     92  C   UNL d   1      -0.399  32.602  -0.285  0.00  0.00     0.269 C 
BRANCH  92  93
ATOM     93  N   UNL d   1       0.755  33.464  -0.121  0.00  0.00     0.078 N 
ATOM     94  H   UNL d   1       0.465  34.439  -0.026  0.00  0.00     0.312 HD
ATOM     95  H   UNL d   1       1.256  33.254   0.745  0.00  0.00     0.312 HD
ENDBRANCH  92  93
ENDBRANCH  91  92
ENDBRANCH  25  91
BRANCH  16  96
ATOM     96  C   UNL d   1      -4.530  32.373  -2.149  0.00  0.00     0.033 C 
BRANCH  96  97
ATOM     97  C   UNL d   1      -4.892  31.932  -3.876  0.00  0.00    -0.021 C 
ATOM     98  C   UNL d   1      -3.713  31.022  -4.362  0.00  0.00     0.009 C 
ATOM     99  C   UNL d   1      -6.099  31.129  -4.501  0.00  0.00     0.009 C 
ENDBRANCH  96  97
ENDBRANCH  16  96
BRANCH  20 100
ATOM    100  C   UNL d   1      -4.301  30.750   1.002  0.00  0.00     0.064 C 
BRANCH 100 101
ATOM    101  C   UNL d   1      -4.206  30.187   2.396  0.00  0.00     0.269 C 
BRANCH 101 102
ATOM    102  N   UNL d   1      -3.483  28.902   2.287  0.00  0.00     0.078 N 
ATOM    103  H   UNL d   1      -2.483  29.095   2.411  0.00  0.00     0.312 HD
ATOM    104  H   UNL d   1      -3.713  28.397   3.188  0.00  0.00     0.312 HD
ENDBRANCH 101 102
ENDBRANCH 100 101
ENDBRANCH  20 100
TORSDOF 35
                                                                                                                                                                                                                           
ENDMDL
MODEL 5
REMARK VINA RESULT:    -7.149      8.620     18.454
REMARK INTER + INTRA:         -20.836
REMARK INTER:                 -17.975
REMARK INTRA:                  -2.861
REMARK UNBOUND:                -3.656
REMARK WARNING: 32 MAX_TORS EXCEEDED!!!
REMARK  35 active torsions:
REMARK  status: ('A' for Active; 'I' for Inactive)
REMARK    1  A    between atoms: C_66  and  O_7 
REMARK    2  A    between atoms: C_71  and  O_9 
REMARK    3  A    between atoms: C_41  and  N_18 
REMARK       I    between atoms: N_18  and  C_58 
REMARK    4  A    between atoms: C_51  and  N_21 
REMARK       I    between atoms: N_21  and  C_70 
REMARK    5  A    between atoms: C_61  and  N_23 
REMARK       I    between atoms: N_23  and  C_75 
REMARK    6  A    between atoms: C_67  and  N_24 
REMARK       I    between atoms: N_24  and  C_77 
REMARK    7  A    between atoms: N_25  and  C_57 
REMARK    8  A    between atoms: N_26  and  C_63 
REMARK    9  A    between atoms: N_27  and  C_74 
REMARK   10  A    between atoms: N_28  and  C_76 
REMARK   11  A    between atoms: N_29  and  C_81 
REMARK   12  A    between atoms: C_30  and  C_32 
REMARK   13  A    between atoms: C_31  and  C_33 
REMARK   14  A    between atoms: C_32  and  C_34 
REMARK   15  A    between atoms: C_33  and  C_35 
REMARK   16  A    between atoms: C_37  and  C_44 
REMARK   17  A    between atoms: C_39  and  C_48 
REMARK   18  A    between atoms: C_44  and  C_57 
REMARK   19  A    between atoms: C_48  and  C_63 
REMARK   20  A    between atoms: C_50  and  C_60 
REMARK   21  A    between atoms: C_51  and  C_58 
REMARK   22  A    between atoms: C_51  and  C_62 
REMARK   23  A    between atoms: C_54  and  C_55 
REMARK   24  A    between atoms: C_54  and  C_65 
REMARK   25  A    between atoms: C_55  and  C_59 
REMARK   26  A    between atoms: C_66  and  C_56 
REMARK   27  A    between atoms: C_59  and  C_69 
REMARK   28  A    between atoms: C_60  and  C_74 
REMARK   29  A    between atoms: C_61  and  C_70 
REMARK   30  A    between atoms: C_71  and  C_61 
REMARK   31  A    between atoms: C_62  and  C_76 
REMARK   32  A    between atoms: C_67  and  C_73 
REMARK   33  A    between atoms: C_67  and  C_75 
REMARK   34  A    between atoms: C_69  and  C_77 
REMARK   35  A    between atoms: C_73  and  C_81 
ROOT
ATOM      1  O   UNL d   1      10.589  30.796 -18.283  0.00  0.00    -0.278 OA
ATOM      2  O   UNL d   1      14.531  35.391 -18.248  0.00  0.00    -0.272 OA
ATOM      3  O   UNL d   1       7.427  27.350 -18.432  0.00  0.00    -0.271 OA
ATOM      4  O   UNL d   1      10.677  30.036 -22.025  0.00  0.00    -0.271 OA
ATOM      5  O   UNL d   1      14.032  30.164 -17.936  0.00  0.00    -0.271 OA
ATOM      6  O   UNL d   1      10.121  34.717 -16.292  0.00  0.00    -0.271 OA
ATOM      7  O   UNL d   1      12.103  36.360 -21.766  0.00  0.00    -0.271 OA
ATOM      8  N   UNL d   1      11.327  32.642 -18.655  0.00  0.00    -0.248 NA
ATOM      9  N   UNL d   1       7.522  29.258 -19.780  0.00  0.00    -0.347 N 
ATOM     10  N   UNL d   1      15.312  33.499 -17.332  0.00  0.00    -0.346 N 
ATOM     11  N   UNL d   1       9.807  29.527 -19.928  0.00  0.00    -0.346 N 
ATOM     12  N   UNL d   1      12.558  31.263 -16.658  0.00  0.00    -0.346 N 
ATOM     13  N   UNL d   1      11.998  34.113 -22.043  0.00  0.00    -0.359 N 
ATOM     14  N   UNL d   1      11.514  34.918 -18.337  0.00  0.00    -0.344 N 
ATOM     15  C   UNL d   1       8.149  30.926 -19.791  0.00  0.00     0.171 C 
ATOM     16  C   UNL d   1      12.911  33.482 -17.740  0.00  0.00     0.155 C 
ATOM     17  C   UNL d   1       9.851  31.705 -18.798  0.00  0.00     0.221 C 
ATOM     18  C   UNL d   1       8.961  29.218 -18.286  0.00  0.00     0.178 C 
ATOM     19  C   UNL d   1      14.295  34.250 -17.863  0.00  0.00     0.236 C 
ATOM     20  C   UNL d   1      15.185  32.104 -16.892  0.00  0.00     0.178 C 
ATOM     21  C   UNL d   1       7.959  28.347 -18.855  0.00  0.00     0.241 C 
ATOM     22  C   UNL d   1       9.207  32.227 -21.429  0.00  0.00     0.178 C 
ATOM     23  C   UNL d   1      10.112  33.329 -21.099  0.00  0.00     0.054 C 
ATOM     24  C   UNL d   1       9.928  30.473 -21.130  0.00  0.00     0.241 C 
ATOM     25  C   UNL d   1      11.734  32.498 -16.099  0.00  0.00     0.178 C 
ATOM     26  C   UNL d   1      13.876  31.086 -17.120  0.00  0.00     0.241 C 
ATOM     27  C   UNL d   1      11.490  32.964 -21.387  0.00  0.00     0.125 C 
ATOM     28  C   UNL d   1      12.660  34.959 -19.800  0.00  0.00     0.205 C 
ATOM     29  C   UNL d   1      10.955  34.076 -16.958  0.00  0.00     0.241 C 
ATOM     30  C   UNL d   1      12.160  35.247 -21.256  0.00  0.00     0.243 C 
ATOM     31  H   UNL d   1      11.850  31.756 -18.793  0.00  0.00     0.131 HD
ATOM     32  H   UNL d   1       6.606  29.011 -20.141  0.00  0.00     0.163 HD
ATOM     33  H   UNL d   1      16.214  33.931 -17.514  0.00  0.00     0.163 HD
ATOM     34  H   UNL d   1      10.227  28.635 -20.199  0.00  0.00     0.163 HD
ATOM     35  H   UNL d   1      11.952  30.552 -17.065  0.00  0.00     0.163 HD
ATOM     36  H   UNL d   1      11.743  34.251 -23.010  0.00  0.00     0.162 HD
ATOM     37  H   UNL d   1      11.278  35.889 -18.153  0.00  0.00     0.163 HD
ENDROOT
BRANCH  22  38
ATOM     38  N   UNL d   1       7.867  33.052 -20.797  0.00  0.00    -0.346 N 
ATOM     39  C   UNL d   1       7.197  34.275 -20.899  0.00  0.00     0.241 C 
ATOM     40  O   UNL d   1       7.725  35.323 -21.233  0.00  0.00    -0.271 OA
ATOM     41  H   UNL d   1       7.785  32.895 -19.810  0.00  0.00     0.163 HD
BRANCH  39  42
ATOM     42  C   UNL d   1       5.613  34.104 -20.520  0.00  0.00     0.178 C 
BRANCH  42  43
ATOM     43  N   UNL d   1       4.941  34.584 -19.294  0.00  0.00    -0.346 N 
ATOM     44  C   UNL d   1       4.482  33.696 -18.333  0.00  0.00     0.243 C 
ATOM     45  O   UNL d   1       4.700  32.488 -18.420  0.00  0.00    -0.271 OA
ATOM     46  H   UNL d   1       4.281  35.349 -19.429  0.00  0.00     0.163 HD
BRANCH  44  47
ATOM     47  C   UNL d   1       3.771  34.361 -17.094  0.00  0.00     0.205 C 
BRANCH  47  48
ATOM     48  N   UNL d   1       3.227  33.541 -15.897  0.00  0.00    -0.344 N 
ATOM     49  C   UNL d   1       2.122  32.660 -15.823  0.00  0.00     0.241 C 
ATOM     50  O   UNL d   1       1.470  32.396 -16.832  0.00  0.00    -0.271 OA
ATOM     51  H   UNL d   1       3.438  34.013 -15.021  0.00  0.00     0.163 HD
BRANCH  49  52
ATOM     52  C   UNL d   1       1.811  31.958 -14.332  0.00  0.00     0.178 C 
BRANCH  52  53
ATOM     53  N   UNL d   1       0.449  32.153 -13.533  0.00  0.00    -0.348 N 
ATOM     54  C   UNL d   1       0.169  31.883 -12.184  0.00  0.00     0.218 C 
ATOM     55  O   UNL d   1       0.941  31.247 -11.464  0.00  0.00    -0.274 OA
ATOM     56  H   UNL d   1      -0.267  32.686 -14.011  0.00  0.00     0.163 HD
BRANCH  54  57
ATOM     57  C   UNL d   1      -1.115  32.501 -11.503  0.00  0.00     0.103 C 
BRANCH  57  58
ATOM     58  C   UNL d   1      -1.120  33.962 -10.998  0.00  0.00     0.010 C 
BRANCH  58  59
ATOM     59  C   UNL d   1      -0.206  34.168  -9.775  0.00  0.00     0.005 C 
BRANCH  59  60
ATOM     60  C   UNL d   1       1.171  34.854  -9.980  0.00  0.00    -0.019 C 
ATOM     61  C   UNL d   1       2.242  34.075  -9.186  0.00  0.00     0.010 C 
BRANCH  60  62
ATOM     62  C   UNL d   1       1.211  36.371  -9.699  0.00  0.00    -0.000 C 
ATOM     63  C   UNL d   1       0.684  37.303 -10.779  0.00  0.00     0.005 C 
ENDBRANCH  60  62
ENDBRANCH  59  60
ENDBRANCH  58  59
ENDBRANCH  57  58
ENDBRANCH  54  57
ENDBRANCH  52  53
BRANCH  52  64
ATOM     64  C   UNL d   1       2.205  30.460 -14.376  0.00  0.00     0.064 C 
BRANCH  64  65
ATOM     65  C   UNL d   1       1.178  29.455 -14.912  0.00  0.00     0.269 C 
BRANCH  65  66
ATOM     66  N   UNL d   1       1.649  28.087 -14.710  0.00  0.00     0.078 N 
ATOM     67  H   UNL d   1       2.437  28.068 -14.066  0.00  0.00     0.312 HD
ATOM     68  H   UNL d   1       0.918  27.506 -14.300  0.00  0.00     0.312 HD
ENDBRANCH  65  66
ENDBRANCH  64  65
ENDBRANCH  52  64
ENDBRANCH  49  52
ENDBRANCH  47  48
BRANCH  47  69
ATOM     69  C   UNL d   1       4.843  35.394 -16.550  0.00  0.00     0.146 C 
ATOM     70  C   UNL d   1       4.573  36.895 -16.815  0.00  0.00     0.042 C 
BRANCH  69  71
ATOM     71  O   UNL d   1       4.987  35.186 -15.135  0.00  0.00    -0.393 OA
ATOM     72  H   UNL d   1       5.939  35.194 -14.934  0.00  0.00     0.210 HD
ENDBRANCH  69  71
ENDBRANCH  47  69
ENDBRANCH  44  47
ENDBRANCH  42  43
BRANCH  42  73
ATOM     73  C   UNL d   1       4.778  34.669 -21.680  0.00  0.00     0.064 C 
BRANCH  73  74
ATOM     74  C   UNL d   1       4.188  36.035 -21.437  0.00  0.00     0.269 C 
BRANCH  74  75
ATOM     75  N   UNL d   1       5.126  37.044 -21.877  0.00  0.00     0.078 N 
ATOM     76  H   UNL d   1       4.658  37.710 -22.487  0.00  0.00     0.312 HD
ATOM     77  H   UNL d   1       5.871  36.610 -22.424  0.00  0.00     0.312 HD
ENDBRANCH  74  75
ENDBRANCH  73  74
ENDBRANCH  42  73
ENDBRANCH  39  42
ENDBRANCH  22  38
BRANCH  18  78
ATOM     78  C   UNL d   1       7.769  30.353 -17.469  0.00  0.00     0.064 C 
BRANCH  78  79
ATOM     79  C   UNL d   1       6.930  30.492 -16.174  0.00  0.00     0.269 C 
BRANCH  79  80
ATOM     80  N   UNL d   1       5.521  30.349 -16.366  0.00  0.00     0.078 N 
ATOM     81  H   UNL d   1       5.147  29.707 -15.658  0.00  0.00     0.312 HD
ATOM     82  H   UNL d   1       5.366  29.880 -17.247  0.00  0.00     0.312 HD
ENDBRANCH  79  80
ENDBRANCH  78  79
ENDBRANCH  18  78
BRANCH  28  83
ATOM     83  C   UNL d   1      14.056  33.879 -20.429  0.00  0.00     0.146 C 
ATOM     84  C   UNL d   1      15.391  34.582 -20.761  0.00  0.00     0.042 C 
BRANCH  83  85
ATOM     85  O   UNL d   1      14.516  32.635 -19.908  0.00  0.00    -0.393 OA
ATOM     86  H   UNL d   1      13.794  32.166 -19.453  0.00  0.00     0.210 HD
ENDBRANCH  83  85
ENDBRANCH  28  83
BRANCH  15  87
ATOM     87  C   UNL d   1       7.005  30.792 -21.302  0.00  0.00     0.038 C 
BRANCH  87  88
ATOM     88  C   UNL d   1       5.452  30.954 -22.025  0.00  0.00    -0.020 C 
ATOM     89  C   UNL d   1       5.486  30.759 -23.545  0.00  0.00     0.009 C 
ATOM     90  C   UNL d   1       3.996  30.731 -21.510  0.00  0.00     0.009 C 
ENDBRANCH  87  88
ENDBRANCH  15  87
BRANCH  25  91
ATOM     91  C   UNL d   1      11.197  32.195 -14.670  0.00  0.00     0.064 C 
BRANCH  91  92
ATOM     92  C   UNL d   1       9.994  31.306 -14.747  0.00  0.00     0.269 C 
BRANCH  92  93
ATOM     93  N   UNL d   1      10.336  29.905 -14.587  0.00  0.00     0.078 N 
ATOM     94  H   UNL d   1      11.323  29.750 -14.797  0.00  0.00     0.312 HD
ATOM     95  H   UNL d   1      10.223  29.603 -13.617  0.00  0.00     0.312 HD
ENDBRANCH  92  93
ENDBRANCH  91  92
ENDBRANCH  25  91
BRANCH  16  96
ATOM     96  C   UNL d   1      13.243  34.585 -16.110  0.00  0.00     0.033 C 
BRANCH  96  97
ATOM     97  C   UNL d   1      12.802  36.255 -15.542  0.00  0.00    -0.021 C 
ATOM     98  C   UNL d   1      13.810  36.619 -14.399  0.00  0.00     0.009 C 
ATOM     99  C   UNL d   1      12.792  37.634 -16.312  0.00  0.00     0.009 C 
ENDBRANCH  96  97
ENDBRANCH  16  96
BRANCH  20 100
ATOM    100  C   UNL d   1      15.695  32.092 -15.486  0.00  0.00     0.064 C 
BRANCH 100 101
ATOM    101  C   UNL d   1      15.243  30.824 -14.809  0.00  0.00     0.269 C 
BRANCH 101 102
ATOM    102  N   UNL d   1      14.465  31.230 -13.620  0.00  0.00     0.078 N 
ATOM    103  H   UNL d   1      13.563  31.596 -13.946  0.00  0.00     0.312 HD
ATOM    104  H   UNL d   1      14.172  30.315 -13.176  0.00  0.00     0.312 HD
ENDBRANCH 101 102
ENDBRANCH 100 101
ENDBRANCH  20 100
TORSDOF 35
                                                                                                                                                                                                                           
ENDMDL
MODEL 6
REMARK VINA RESULT:    -6.971      2.636      6.202
REMARK INTER + INTRA:         -20.407
REMARK INTER:                 -16.456
REMARK INTRA:                  -3.951
REMARK UNBOUND:                -3.656
REMARK WARNING: 32 MAX_TORS EXCEEDED!!!
REMARK  35 active torsions:
REMARK  status: ('A' for Active; 'I' for Inactive)
REMARK    1  A    between atoms: C_66  and  O_7 
REMARK    2  A    between atoms: C_71  and  O_9 
REMARK    3  A    between atoms: C_41  and  N_18 
REMARK       I    between atoms: N_18  and  C_58 
REMARK    4  A    between atoms: C_51  and  N_21 
REMARK       I    between atoms: N_21  and  C_70 
REMARK    5  A    between atoms: C_61  and  N_23 
REMARK       I    between atoms: N_23  and  C_75 
REMARK    6  A    between atoms: C_67  and  N_24 
REMARK       I    between atoms: N_24  and  C_77 
REMARK    7  A    between atoms: N_25  and  C_57 
REMARK    8  A    between atoms: N_26  and  C_63 
REMARK    9  A    between atoms: N_27  and  C_74 
REMARK   10  A    between atoms: N_28  and  C_76 
REMARK   11  A    between atoms: N_29  and  C_81 
REMARK   12  A    between atoms: C_30  and  C_32 
REMARK   13  A    between atoms: C_31  and  C_33 
REMARK   14  A    between atoms: C_32  and  C_34 
REMARK   15  A    between atoms: C_33  and  C_35 
REMARK   16  A    between atoms: C_37  and  C_44 
REMARK   17  A    between atoms: C_39  and  C_48 
REMARK   18  A    between atoms: C_44  and  C_57 
REMARK   19  A    between atoms: C_48  and  C_63 
REMARK   20  A    between atoms: C_50  and  C_60 
REMARK   21  A    between atoms: C_51  and  C_58 
REMARK   22  A    between atoms: C_51  and  C_62 
REMARK   23  A    between atoms: C_54  and  C_55 
REMARK   24  A    between atoms: C_54  and  C_65 
REMARK   25  A    between atoms: C_55  and  C_59 
REMARK   26  A    between atoms: C_66  and  C_56 
REMARK   27  A    between atoms: C_59  and  C_69 
REMARK   28  A    between atoms: C_60  and  C_74 
REMARK   29  A    between atoms: C_61  and  C_70 
REMARK   30  A    between atoms: C_71  and  C_61 
REMARK   31  A    between atoms: C_62  and  C_76 
REMARK   32  A    between atoms: C_67  and  C_73 
REMARK   33  A    between atoms: C_67  and  C_75 
REMARK   34  A    between atoms: C_69  and  C_77 
REMARK   35  A    between atoms: C_73  and  C_81 
ROOT
ATOM      1  O   UNL d   1      -2.237  36.267  -0.873  0.00  0.00    -0.278 OA
ATOM      2  O   UNL d   1      -7.492  33.303  -1.390  0.00  0.00    -0.272 OA
ATOM      3  O   UNL d   1       1.757  38.689  -0.607  0.00  0.00    -0.271 OA
ATOM      4  O   UNL d   1      -3.618  39.604   0.370  0.00  0.00    -0.271 OA
ATOM      5  O   UNL d   1      -3.564  34.535   1.886  0.00  0.00    -0.271 OA
ATOM      6  O   UNL d   1      -3.620  33.833  -4.297  0.00  0.00    -0.271 OA
ATOM      7  O   UNL d   1      -8.515  37.191  -3.136  0.00  0.00    -0.271 OA
ATOM      8  N   UNL d   1      -4.067  35.796  -1.597  0.00  0.00    -0.248 NA
ATOM      9  N   UNL d   1      -0.234  39.332  -1.648  0.00  0.00    -0.347 N 
ATOM     10  N   UNL d   1      -6.212  32.620   0.319  0.00  0.00    -0.346 N 
ATOM     11  N   UNL d   1      -1.761  38.339  -0.235  0.00  0.00    -0.346 N 
ATOM     12  N   UNL d   1      -2.849  33.858  -0.125  0.00  0.00    -0.346 N 
ATOM     13  N   UNL d   1      -7.090  38.021  -1.581  0.00  0.00    -0.359 N 
ATOM     14  N   UNL d   1      -5.536  34.887  -3.124  0.00  0.00    -0.344 N 
ATOM     15  C   UNL d   1      -1.704  38.648  -2.386  0.00  0.00     0.171 C 
ATOM     16  C   UNL d   1      -5.062  34.081  -1.254  0.00  0.00     0.155 C 
ATOM     17  C   UNL d   1      -2.687  36.826  -1.932  0.00  0.00     0.221 C 
ATOM     18  C   UNL d   1      -0.276  37.403  -0.887  0.00  0.00     0.178 C 
ATOM     19  C   UNL d   1      -6.407  33.360  -0.818  0.00  0.00     0.236 C 
ATOM     20  C   UNL d   1      -4.992  32.641   1.137  0.00  0.00     0.178 C 
ATOM     21  C   UNL d   1       0.586  38.562  -0.867  0.00  0.00     0.241 C 
ATOM     22  C   UNL d   1      -3.970  39.242  -2.287  0.00  0.00     0.178 C 
ATOM     23  C   UNL d   1      -5.050  38.276  -2.495  0.00  0.00     0.054 C 
ATOM     24  C   UNL d   1      -3.052  39.080  -0.608  0.00  0.00     0.241 C 
ATOM     25  C   UNL d   1      -2.940  33.462  -1.659  0.00  0.00     0.178 C 
ATOM     26  C   UNL d   1      -3.693  33.686   0.989  0.00  0.00     0.241 C 
ATOM     27  C   UNL d   1      -5.716  37.974  -1.237  0.00  0.00     0.125 C 
ATOM     28  C   UNL d   1      -6.922  35.597  -2.108  0.00  0.00     0.205 C 
ATOM     29  C   UNL d   1      -3.983  34.172  -3.156  0.00  0.00     0.241 C 
ATOM     30  C   UNL d   1      -7.552  37.000  -2.403  0.00  0.00     0.243 C 
ATOM     31  H   UNL d   1      -3.834  35.887  -0.590  0.00  0.00     0.131 HD
ATOM     32  H   UNL d   1       0.264  40.123  -2.043  0.00  0.00     0.163 HD
ATOM     33  H   UNL d   1      -7.093  32.254   0.669  0.00  0.00     0.163 HD
ATOM     34  H   UNL d   1      -1.532  38.593   0.728  0.00  0.00     0.163 HD
ATOM     35  H   UNL d   1      -2.236  34.657   0.028  0.00  0.00     0.163 HD
ATOM     36  H   UNL d   1      -7.515  38.931  -1.686  0.00  0.00     0.162 HD
ATOM     37  H   UNL d   1      -5.963  34.604  -4.000  0.00  0.00     0.163 HD
ENDROOT
BRANCH  22  38
ATOM     38  N   UNL d   1      -3.463  39.121  -3.901  0.00  0.00    -0.346 N 
ATOM     39  C   UNL d   1      -3.535  39.810  -5.116  0.00  0.00     0.241 C 
ATOM     40  O   UNL d   1      -4.435  40.574  -5.423  0.00  0.00    -0.271 OA
ATOM     41  H   UNL d   1      -3.553  38.180  -4.233  0.00  0.00     0.163 HD
BRANCH  39  42
ATOM     42  C   UNL d   1      -2.244  39.456  -6.060  0.00  0.00     0.178 C 
BRANCH  42  43
ATOM     43  N   UNL d   1      -2.125  38.327  -7.007  0.00  0.00    -0.346 N 
ATOM     44  C   UNL d   1      -2.139  37.014  -6.562  0.00  0.00     0.243 C 
ATOM     45  O   UNL d   1      -2.344  36.739  -5.380  0.00  0.00    -0.271 OA
ATOM     46  H   UNL d   1      -1.442  38.453  -7.753  0.00  0.00     0.163 HD
BRANCH  44  47
ATOM     47  C   UNL d   1      -1.983  35.925  -7.690  0.00  0.00     0.205 C 
BRANCH  47  48
ATOM     48  N   UNL d   1      -1.054  36.111  -8.917  0.00  0.00    -0.344 N 
ATOM     49  C   UNL d   1      -1.089  35.490 -10.188  0.00  0.00     0.241 C 
ATOM     50  O   UNL d   1      -1.998  34.713 -10.475  0.00  0.00    -0.271 OA
ATOM     51  H   UNL d   1      -0.121  36.383  -8.615  0.00  0.00     0.163 HD
BRANCH  49  52
ATOM     52  C   UNL d   1       0.111  35.925 -11.276  0.00  0.00     0.178 C 
BRANCH  52  53
ATOM     53  N   UNL d   1       0.982  37.249 -11.145  0.00  0.00    -0.348 N 
ATOM     54  C   UNL d   1       0.596  38.520 -10.686  0.00  0.00     0.218 C 
ATOM     55  O   UNL d   1      -0.584  38.823 -10.499  0.00  0.00    -0.274 OA
ATOM     56  H   UNL d   1       1.981  37.130 -11.255  0.00  0.00     0.163 HD
BRANCH  54  57
ATOM     57  C   UNL d   1       1.692  39.580 -10.275  0.00  0.00     0.103 C 
BRANCH  57  58
ATOM     58  C   UNL d   1       2.202  39.669  -8.818  0.00  0.00     0.010 C 
BRANCH  58  59
ATOM     59  C   UNL d   1       1.607  38.572  -7.916  0.00  0.00     0.005 C 
BRANCH  59  60
ATOM     60  C   UNL d   1       2.522  37.404  -7.459  0.00  0.00    -0.019 C 
ATOM     61  C   UNL d   1       3.892  37.978  -7.035  0.00  0.00     0.010 C 
BRANCH  60  62
ATOM     62  C   UNL d   1       2.652  36.229  -8.450  0.00  0.00    -0.000 C 
ATOM     63  C   UNL d   1       3.318  34.955  -7.952  0.00  0.00     0.005 C 
ENDBRANCH  60  62
ENDBRANCH  59  60
ENDBRANCH  58  59
ENDBRANCH  57  58
ENDBRANCH  54  57
ENDBRANCH  52  53
BRANCH  52  64
ATOM     64  C   UNL d   1       1.020  34.701 -11.556  0.00  0.00     0.064 C 
BRANCH  64  65
ATOM     65  C   UNL d   1       1.045  33.566 -10.525  0.00  0.00     0.269 C 
BRANCH  65  66
ATOM     66  N   UNL d   1       0.286  32.417 -11.013  0.00  0.00     0.078 N 
ATOM     67  H   UNL d   1       0.647  31.551 -10.617  0.00  0.00     0.312 HD
ATOM     68  H   UNL d   1      -0.694  32.482 -10.736  0.00  0.00     0.312 HD
ENDBRANCH  65  66
ENDBRANCH  64  65
ENDBRANCH  52  64
ENDBRANCH  49  52
ENDBRANCH  47  48
BRANCH  47  69
ATOM     69  C   UNL d   1      -1.523  34.627  -6.903  0.00  0.00     0.146 C 
ATOM     70  C   UNL d   1      -2.183  33.287  -7.306  0.00  0.00     0.042 C 
BRANCH  69  71
ATOM     71  O   UNL d   1      -0.096  34.506  -7.037  0.00  0.00    -0.393 OA
ATOM     72  H   UNL d   1       0.202  33.842  -6.391  0.00  0.00     0.210 HD
ENDBRANCH  69  71
ENDBRANCH  47  69
ENDBRANCH  44  47
ENDBRANCH  42  43
BRANCH  42  73
ATOM     73  C   UNL d   1      -1.896  40.705  -6.885  0.00  0.00     0.064 C 
BRANCH  73  74
ATOM     74  C   UNL d   1      -1.606  41.945  -6.078  0.00  0.00     0.269 C 
BRANCH  74  75
ATOM     75  N   UNL d   1      -2.627  42.935  -6.341  0.00  0.00     0.078 N 
ATOM     76  H   UNL d   1      -2.285  43.615  -7.016  0.00  0.00     0.312 HD
ATOM     77  H   UNL d   1      -2.841  43.447  -5.484  0.00  0.00     0.312 HD
ENDBRANCH  74  75
ENDBRANCH  73  74
ENDBRANCH  42  73
ENDBRANCH  39  42
ENDBRANCH  22  38
BRANCH  18  78
ATOM     78  C   UNL d   1       0.032  36.981  -2.648  0.00  0.00     0.064 C 
BRANCH  78  79
ATOM     79  C   UNL d   1       0.372  35.773  -3.557  0.00  0.00     0.269 C 
BRANCH  79  80
ATOM     80  N   UNL d   1       0.734  36.125  -4.894  0.00  0.00     0.078 N 
ATOM     81  H   UNL d   1       1.654  36.580  -4.887  0.00  0.00     0.312 HD
ATOM     82  H   UNL d   1       0.096  36.838  -5.219  0.00  0.00     0.312 HD
ENDBRANCH  79  80
ENDBRANCH  78  79
ENDBRANCH  18  78
BRANCH  28  83
ATOM     83  C   UNL d   1      -7.287  35.750  -0.277  0.00  0.00     0.146 C 
ATOM     84  C   UNL d   1      -8.662  35.238   0.209  0.00  0.00     0.042 C 
BRANCH  83  85
ATOM     85  O   UNL d   1      -6.454  35.402   0.825  0.00  0.00    -0.393 OA
ATOM     86  H   UNL d   1      -6.888  34.737   1.386  0.00  0.00     0.210 HD
ENDBRANCH  83  85
ENDBRANCH  28  83
BRANCH  15  87
ATOM     87  C   UNL d   1      -1.720  40.498  -2.819  0.00  0.00     0.038 C 
BRANCH  87  88
ATOM     88  C   UNL d   1      -2.144  42.122  -2.441  0.00  0.00    -0.020 C 
ATOM     89  C   UNL d   1      -0.919  43.034  -2.298  0.00  0.00     0.009 C 
ATOM     90  C   UNL d   1      -3.407  42.997  -2.715  0.00  0.00     0.009 C 
ENDBRANCH  87  88
ENDBRANCH  15  87
BRANCH  25  91
ATOM     91  C   UNL d   1      -1.735  32.564  -2.064  0.00  0.00     0.064 C 
BRANCH  91  92
ATOM     92  C   UNL d   1      -0.509  32.970  -1.306  0.00  0.00     0.269 C 
BRANCH  92  93
ATOM     93  N   UNL d   1       0.195  31.831  -0.750  0.00  0.00     0.078 N 
ATOM     94  H   UNL d   1       0.367  31.128  -1.471  0.00  0.00     0.312 HD
ATOM     95  H   UNL d   1       1.124  32.096  -0.415  0.00  0.00     0.312 HD
ENDBRANCH  92  93
ENDBRANCH  91  92
ENDBRANCH  25  91
BRANCH  16  96
ATOM     96  C   UNL d   1      -5.183  32.269  -2.083  0.00  0.00     0.033 C 
BRANCH  96  97
ATOM     97  C   UNL d   1      -5.228  31.598  -3.773  0.00  0.00    -0.021 C 
ATOM     98  C   UNL d   1      -4.138  30.475  -3.838  0.00  0.00     0.009 C 
ATOM     99  C   UNL d   1      -6.386  30.865  -4.557  0.00  0.00     0.009 C 
ENDBRANCH  96  97
ENDBRANCH  16  96
BRANCH  20 100
ATOM    100  C   UNL d   1      -4.577  31.209   1.253  0.00  0.00     0.064 C 
BRANCH 100 101
ATOM    101  C   UNL d   1      -4.241  30.909   2.690  0.00  0.00     0.269 C 
BRANCH 101 102
ATOM    102  N   UNL d   1      -5.472  31.147   3.474  0.00  0.00     0.078 N 
ATOM    103  H   UNL d   1      -5.539  32.155   3.652  0.00  0.00     0.312 HD
ATOM    104  H   UNL d   1      -6.255  31.003   2.777  0.00  0.00     0.312 HD
ENDBRANCH 101 102
ENDBRANCH 100 101
ENDBRANCH  20 100
TORSDOF 35
                                                                                                                                                                                                                           
ENDMDL
MODEL 7
REMARK VINA RESULT:    -6.963      3.276     11.414
REMARK INTER + INTRA:         -20.388
REMARK INTER:                 -14.250
REMARK INTRA:                  -6.138
REMARK UNBOUND:                -3.656
REMARK WARNING: 32 MAX_TORS EXCEEDED!!!
REMARK  35 active torsions:
REMARK  status: ('A' for Active; 'I' for Inactive)
REMARK    1  A    between atoms: C_66  and  O_7 
REMARK    2  A    between atoms: C_71  and  O_9 
REMARK    3  A    between atoms: C_41  and  N_18 
REMARK       I    between atoms: N_18  and  C_58 
REMARK    4  A    between atoms: C_51  and  N_21 
REMARK       I    between atoms: N_21  and  C_70 
REMARK    5  A    between atoms: C_61  and  N_23 
REMARK       I    between atoms: N_23  and  C_75 
REMARK    6  A    between atoms: C_67  and  N_24 
REMARK       I    between atoms: N_24  and  C_77 
REMARK    7  A    between atoms: N_25  and  C_57 
REMARK    8  A    between atoms: N_26  and  C_63 
REMARK    9  A    between atoms: N_27  and  C_74 
REMARK   10  A    between atoms: N_28  and  C_76 
REMARK   11  A    between atoms: N_29  and  C_81 
REMARK   12  A    between atoms: C_30  and  C_32 
REMARK   13  A    between atoms: C_31  and  C_33 
REMARK   14  A    between atoms: C_32  and  C_34 
REMARK   15  A    between atoms: C_33  and  C_35 
REMARK   16  A    between atoms: C_37  and  C_44 
REMARK   17  A    between atoms: C_39  and  C_48 
REMARK   18  A    between atoms: C_44  and  C_57 
REMARK   19  A    between atoms: C_48  and  C_63 
REMARK   20  A    between atoms: C_50  and  C_60 
REMARK   21  A    between atoms: C_51  and  C_58 
REMARK   22  A    between atoms: C_51  and  C_62 
REMARK   23  A    between atoms: C_54  and  C_55 
REMARK   24  A    between atoms: C_54  and  C_65 
REMARK   25  A    between atoms: C_55  and  C_59 
REMARK   26  A    between atoms: C_66  and  C_56 
REMARK   27  A    between atoms: C_59  and  C_69 
REMARK   28  A    between atoms: C_60  and  C_74 
REMARK   29  A    between atoms: C_61  and  C_70 
REMARK   30  A    between atoms: C_71  and  C_61 
REMARK   31  A    between atoms: C_62  and  C_76 
REMARK   32  A    between atoms: C_67  and  C_73 
REMARK   33  A    between atoms: C_67  and  C_75 
REMARK   34  A    between atoms: C_69  and  C_77 
REMARK   35  A    between atoms: C_73  and  C_81 
ROOT
ATOM      1  O   UNL d   1      -1.046  36.300  -6.931  0.00  0.00    -0.278 OA
ATOM      2  O   UNL d   1       0.381  41.988  -8.437  0.00  0.00    -0.272 OA
ATOM      3  O   UNL d   1      -2.205  31.971  -5.589  0.00  0.00    -0.271 OA
ATOM      4  O   UNL d   1      -4.762  36.842  -6.232  0.00  0.00    -0.271 OA
ATOM      5  O   UNL d   1      -1.378  37.379 -10.263  0.00  0.00    -0.271 OA
ATOM      6  O   UNL d   1       2.391  38.677  -5.484  0.00  0.00    -0.271 OA
ATOM      7  O   UNL d   1      -2.150  42.634  -4.917  0.00  0.00    -0.271 OA
ATOM      8  N   UNL d   1      -0.727  38.284  -6.695  0.00  0.00    -0.248 NA
ATOM      9  N   UNL d   1      -2.674  33.979  -4.488  0.00  0.00    -0.347 N 
ATOM     10  N   UNL d   1       0.365  40.555 -10.161  0.00  0.00    -0.346 N 
ATOM     11  N   UNL d   1      -2.962  35.370  -6.304  0.00  0.00    -0.346 N 
ATOM     12  N   UNL d   1       0.393  37.168  -8.909  0.00  0.00    -0.346 N 
ATOM     13  N   UNL d   1      -3.292  40.829  -5.677  0.00  0.00    -0.359 N 
ATOM     14  N   UNL d   1       0.454  40.140  -6.005  0.00  0.00    -0.344 N 
ATOM     15  C   UNL d   1      -2.086  35.653  -4.334  0.00  0.00     0.171 C 
ATOM     16  C   UNL d   1       0.261  39.478  -7.979  0.00  0.00     0.155 C 
ATOM     17  C   UNL d   1      -1.065  36.833  -5.768  0.00  0.00     0.221 C 
ATOM     18  C   UNL d   1      -1.497  34.210  -6.180  0.00  0.00     0.178 C 
ATOM     19  C   UNL d   1       0.300  40.824  -8.819  0.00  0.00     0.236 C 
ATOM     20  C   UNL d   1       0.218  39.221 -10.758  0.00  0.00     0.178 C 
ATOM     21  C   UNL d   1      -2.250  33.174  -5.511  0.00  0.00     0.241 C 
ATOM     22  C   UNL d   1      -3.173  37.728  -4.231  0.00  0.00     0.178 C 
ATOM     23  C   UNL d   1      -2.534  38.976  -4.650  0.00  0.00     0.054 C 
ATOM     24  C   UNL d   1      -3.688  36.562  -5.666  0.00  0.00     0.241 C 
ATOM     25  C   UNL d   1       1.491  37.603  -7.850  0.00  0.00     0.178 C 
ATOM     26  C   UNL d   1      -0.248  37.812  -9.985  0.00  0.00     0.241 C 
ATOM     27  C   UNL d   1      -3.099  39.444  -5.906  0.00  0.00     0.125 C 
ATOM     28  C   UNL d   1      -0.990  41.177  -6.550  0.00  0.00     0.205 C 
ATOM     29  C   UNL d   1       1.433  38.764  -6.274  0.00  0.00     0.241 C 
ATOM     30  C   UNL d   1      -2.140  41.601  -5.576  0.00  0.00     0.243 C 
ATOM     31  H   UNL d   1      -1.269  37.860  -7.473  0.00  0.00     0.131 HD
ATOM     32  H   UNL d   1      -2.998  33.433  -3.696  0.00  0.00     0.163 HD
ATOM     33  H   UNL d   1       0.270  41.407 -10.707  0.00  0.00     0.163 HD
ATOM     34  H   UNL d   1      -3.614  34.930  -6.956  0.00  0.00     0.163 HD
ATOM     35  H   UNL d   1      -0.193  36.410  -8.563  0.00  0.00     0.163 HD
ATOM     36  H   UNL d   1      -4.086  41.105  -5.118  0.00  0.00     0.162 HD
ATOM     37  H   UNL d   1       1.038  40.761  -5.453  0.00  0.00     0.163 HD
ENDROOT
BRANCH  22  38
ATOM     38  N   UNL d   1      -2.114  37.551  -2.917  0.00  0.00    -0.346 N 
ATOM     39  C   UNL d   1      -1.963  37.946  -1.584  0.00  0.00     0.241 C 
ATOM     40  O   UNL d   1      -2.429  38.969  -1.111  0.00  0.00    -0.271 OA
ATOM     41  H   UNL d   1      -1.160  37.602  -3.220  0.00  0.00     0.163 HD
BRANCH  39  42
ATOM     42  C   UNL d   1      -1.083  36.844  -0.750  0.00  0.00     0.178 C 
BRANCH  42  43
ATOM     43  N   UNL d   1      -1.554  35.536  -0.247  0.00  0.00    -0.346 N 
ATOM     44  C   UNL d   1      -1.257  35.114   1.040  0.00  0.00     0.243 C 
ATOM     45  O   UNL d   1      -0.674  35.848   1.838  0.00  0.00    -0.271 OA
ATOM     46  H   UNL d   1      -1.488  34.764  -0.908  0.00  0.00     0.163 HD
BRANCH  44  47
ATOM     47  C   UNL d   1      -1.813  33.690   1.421  0.00  0.00     0.205 C 
BRANCH  47  48
ATOM     48  N   UNL d   1      -2.936  32.983   0.621  0.00  0.00    -0.344 N 
ATOM     49  C   UNL d   1      -3.018  32.677  -0.759  0.00  0.00     0.241 C 
ATOM     50  O   UNL d   1      -2.070  32.918  -1.505  0.00  0.00    -0.271 OA
ATOM     51  H   UNL d   1      -3.839  33.144   1.062  0.00  0.00     0.163 HD
BRANCH  49  52
ATOM     52  C   UNL d   1      -4.418  31.918  -1.285  0.00  0.00     0.178 C 
BRANCH  52  53
ATOM     53  N   UNL d   1      -5.874  32.530  -1.099  0.00  0.00    -0.348 N 
ATOM     54  C   UNL d   1      -6.417  33.198   0.011  0.00  0.00     0.218 C 
ATOM     55  O   UNL d   1      -5.854  33.223   1.107  0.00  0.00    -0.274 OA
ATOM     56  H   UNL d   1      -6.436  32.587  -1.938  0.00  0.00     0.163 HD
BRANCH  54  57
ATOM     57  C   UNL d   1      -7.735  34.054  -0.147  0.00  0.00     0.103 C 
BRANCH  57  58
ATOM     58  C   UNL d   1      -8.022  35.249   0.791  0.00  0.00     0.010 C 
BRANCH  58  59
ATOM     59  C   UNL d   1      -9.145  36.160   0.259  0.00  0.00     0.005 C 
BRANCH  59  60
ATOM     60  C   UNL d   1      -8.793  37.237  -0.802  0.00  0.00    -0.019 C 
ATOM     61  C   UNL d   1      -7.965  38.352  -0.127  0.00  0.00     0.010 C 
BRANCH  60  62
ATOM     62  C   UNL d   1      -9.982  37.789  -1.615  0.00  0.00    -0.000 C 
ATOM     63  C   UNL d   1     -11.249  38.152  -0.856  0.00  0.00     0.005 C 
ENDBRANCH  60  62
ENDBRANCH  59  60
ENDBRANCH  58  59
ENDBRANCH  57  58
ENDBRANCH  54  57
ENDBRANCH  52  53
BRANCH  52  64
ATOM     64  C   UNL d   1      -4.218  31.422  -2.739  0.00  0.00     0.064 C 
BRANCH  64  65
ATOM     65  C   UNL d   1      -5.367  31.617  -3.736  0.00  0.00     0.269 C 
BRANCH  65  66
ATOM     66  N   UNL d   1      -5.051  30.979  -5.011  0.00  0.00     0.078 N 
ATOM     67  H   UNL d   1      -5.074  31.656  -5.771  0.00  0.00     0.312 HD
ATOM     68  H   UNL d   1      -4.110  30.582  -4.998  0.00  0.00     0.312 HD
ENDBRANCH  65  66
ENDBRANCH  64  65
ENDBRANCH  52  64
ENDBRANCH  49  52
ENDBRANCH  47  48
BRANCH  47  69
ATOM     69  C   UNL d   1      -0.526  32.764   1.407  0.00  0.00     0.146 C 
ATOM     70  C   UNL d   1      -0.758  31.235   1.347  0.00  0.00     0.042 C 
BRANCH  69  71
ATOM     71  O   UNL d   1       0.295  33.157   0.293  0.00  0.00    -0.393 OA
ATOM     72  H   UNL d   1      -0.251  33.715  -0.288  0.00  0.00     0.210 HD
ENDBRANCH  69  71
ENDBRANCH  47  69
ENDBRANCH  44  47
ENDBRANCH  42  43
BRANCH  42  73
ATOM     73  C   UNL d   1       0.182  36.526  -1.561  0.00  0.00     0.064 C 
BRANCH  73  74
ATOM     74  C   UNL d   1       1.483  36.804  -0.854  0.00  0.00     0.269 C 
BRANCH  74  75
ATOM     75  N   UNL d   1       1.241  37.698   0.257  0.00  0.00     0.078 N 
ATOM     76  H   UNL d   1       1.970  38.407   0.297  0.00  0.00     0.312 HD
ATOM     77  H   UNL d   1       1.280  37.178   1.135  0.00  0.00     0.312 HD
ENDBRANCH  74  75
ENDBRANCH  73  74
ENDBRANCH  42  73
ENDBRANCH  39  42
ENDBRANCH  22  38
BRANCH  18  78
ATOM     78  C   UNL d   1      -0.163  34.304  -4.921  0.00  0.00     0.064 C 
BRANCH  78  79
ATOM     79  C   UNL d   1       0.818  33.399  -4.133  0.00  0.00     0.269 C 
BRANCH  79  80
ATOM     80  N   UNL d   1       0.418  33.128  -2.788  0.00  0.00     0.078 N 
ATOM     81  H   UNL d   1       0.247  32.121  -2.683  0.00  0.00     0.312 HD
ATOM     82  H   UNL d   1      -0.481  33.560  -2.629  0.00  0.00     0.312 HD
ENDBRANCH  79  80
ENDBRANCH  78  79
ENDBRANCH  18  78
BRANCH  28  83
ATOM     83  C   UNL d   1      -2.154  41.171  -8.019  0.00  0.00     0.146 C 
ATOM     84  C   UNL d   1      -2.277  42.486  -8.821  0.00  0.00     0.042 C 
BRANCH  83  85
ATOM     85  O   UNL d   1      -2.267  40.199  -9.055  0.00  0.00    -0.393 OA
ATOM     86  H   UNL d   1      -2.838  40.529  -9.771  0.00  0.00     0.210 HD
ENDBRANCH  83  85
ENDBRANCH  28  83
BRANCH  15  87
ATOM     87  C   UNL d   1      -3.382  35.431  -2.963  0.00  0.00     0.038 C 
BRANCH  87  88
ATOM     88  C   UNL d   1      -4.965  35.694  -2.341  0.00  0.00    -0.020 C 
ATOM     89  C   UNL d   1      -4.952  36.303  -0.933  0.00  0.00     0.009 C 
ATOM     90  C   UNL d   1      -6.352  35.960  -3.003  0.00  0.00     0.009 C 
ENDBRANCH  87  88
ENDBRANCH  15  87
BRANCH  25  91
ATOM     91  C   UNL d   1       2.729  36.663  -7.928  0.00  0.00     0.064 C 
BRANCH  91  92
ATOM     92  C   UNL d   1       2.360  35.375  -8.597  0.00  0.00     0.269 C 
BRANCH  92  93
ATOM     93  N   UNL d   1       2.285  34.271  -7.660  0.00  0.00     0.078 N 
ATOM     94  H   UNL d   1       3.220  33.935  -7.425  0.00  0.00     0.312 HD
ATOM     95  H   UNL d   1       1.880  34.566  -6.769  0.00  0.00     0.312 HD
ENDBRANCH  92  93
ENDBRANCH  91  92
ENDBRANCH  25  91
BRANCH  16  96
ATOM     96  C   UNL d   1       2.147  40.055  -8.283  0.00  0.00     0.033 C 
BRANCH  96  97
ATOM     97  C   UNL d   1       3.328  41.169  -7.464  0.00  0.00    -0.021 C 
ATOM     98  C   UNL d   1       4.719  40.448  -7.495  0.00  0.00     0.009 C 
ATOM     99  C   UNL d   1       3.797  42.628  -7.842  0.00  0.00     0.009 C 
ENDBRANCH  96  97
ENDBRANCH  16  96
BRANCH  20 100
ATOM    100  C   UNL d   1       1.434  39.042 -11.612  0.00  0.00     0.064 C 
BRANCH 100 101
ATOM    101  C   UNL d   1       1.458  40.120 -12.665  0.00  0.00     0.269 C 
BRANCH 101 102
ATOM    102  N   UNL d   1       2.843  40.634 -12.716  0.00  0.00     0.078 N 
ATOM    103  H   UNL d   1       2.877  41.496 -12.159  0.00  0.00     0.312 HD
ATOM    104  H   UNL d   1       3.391  39.967 -12.105  0.00  0.00     0.312 HD
ENDBRANCH 101 102
ENDBRANCH 100 101
ENDBRANCH  20 100
TORSDOF 35
                                                                                                                                                                                                                           
ENDMDL
MODEL 8
REMARK VINA RESULT:    -6.865      9.016     18.550
REMARK INTER + INTRA:         -20.153
REMARK INTER:                 -16.975
REMARK INTRA:                  -3.178
REMARK UNBOUND:                -3.656
REMARK WARNING: 32 MAX_TORS EXCEEDED!!!
REMARK  35 active torsions:
REMARK  status: ('A' for Active; 'I' for Inactive)
REMARK    1  A    between atoms: C_66  and  O_7 
REMARK    2  A    between atoms: C_71  and  O_9 
REMARK    3  A    between atoms: C_41  and  N_18 
REMARK       I    between atoms: N_18  and  C_58 
REMARK    4  A    between atoms: C_51  and  N_21 
REMARK       I    between atoms: N_21  and  C_70 
REMARK    5  A    between atoms: C_61  and  N_23 
REMARK       I    between atoms: N_23  and  C_75 
REMARK    6  A    between atoms: C_67  and  N_24 
REMARK       I    between atoms: N_24  and  C_77 
REMARK    7  A    between atoms: N_25  and  C_57 
REMARK    8  A    between atoms: N_26  and  C_63 
REMARK    9  A    between atoms: N_27  and  C_74 
REMARK   10  A    between atoms: N_28  and  C_76 
REMARK   11  A    between atoms: N_29  and  C_81 
REMARK   12  A    between atoms: C_30  and  C_32 
REMARK   13  A    between atoms: C_31  and  C_33 
REMARK   14  A    between atoms: C_32  and  C_34 
REMARK   15  A    between atoms: C_33  and  C_35 
REMARK   16  A    between atoms: C_37  and  C_44 
REMARK   17  A    between atoms: C_39  and  C_48 
REMARK   18  A    between atoms: C_44  and  C_57 
REMARK   19  A    between atoms: C_48  and  C_63 
REMARK   20  A    between atoms: C_50  and  C_60 
REMARK   21  A    between atoms: C_51  and  C_58 
REMARK   22  A    between atoms: C_51  and  C_62 
REMARK   23  A    between atoms: C_54  and  C_55 
REMARK   24  A    between atoms: C_54  and  C_65 
REMARK   25  A    between atoms: C_55  and  C_59 
REMARK   26  A    between atoms: C_66  and  C_56 
REMARK   27  A    between atoms: C_59  and  C_69 
REMARK   28  A    between atoms: C_60  and  C_74 
REMARK   29  A    between atoms: C_61  and  C_70 
REMARK   30  A    between atoms: C_71  and  C_61 
REMARK   31  A    between atoms: C_62  and  C_76 
REMARK   32  A    between atoms: C_67  and  C_73 
REMARK   33  A    between atoms: C_67  and  C_75 
REMARK   34  A    between atoms: C_69  and  C_77 
REMARK   35  A    between atoms: C_73  and  C_81 
ROOT
ATOM      1  O   UNL d   1       9.055  30.843 -19.847  0.00  0.00    -0.278 OA
ATOM      2  O   UNL d   1      13.448  34.569 -17.982  0.00  0.00    -0.272 OA
ATOM      3  O   UNL d   1       5.588  28.112 -21.400  0.00  0.00    -0.271 OA
ATOM      4  O   UNL d   1       9.842  30.906 -23.584  0.00  0.00    -0.271 OA
ATOM      5  O   UNL d   1      12.236  29.565 -19.061  0.00  0.00    -0.271 OA
ATOM      6  O   UNL d   1       8.674  34.262 -17.068  0.00  0.00    -0.271 OA
ATOM      7  O   UNL d   1      11.969  36.680 -21.527  0.00  0.00    -0.271 OA
ATOM      8  N   UNL d   1      10.083  32.570 -19.616  0.00  0.00    -0.248 NA
ATOM      9  N   UNL d   1       6.209  30.219 -22.197  0.00  0.00    -0.347 N 
ATOM     10  N   UNL d   1      13.770  32.418 -17.436  0.00  0.00    -0.346 N 
ATOM     11  N   UNL d   1       8.488  30.114 -21.866  0.00  0.00    -0.346 N 
ATOM     12  N   UNL d   1      10.675  30.600 -17.835  0.00  0.00    -0.346 N 
ATOM     13  N   UNL d   1      11.642  34.599 -22.363  0.00  0.00    -0.359 N 
ATOM     14  N   UNL d   1      10.484  34.656 -18.719  0.00  0.00    -0.344 N 
ATOM     15  C   UNL d   1       7.029  31.716 -21.685  0.00  0.00     0.171 C 
ATOM     16  C   UNL d   1      11.529  32.905 -18.256  0.00  0.00     0.155 C 
ATOM     17  C   UNL d   1       8.565  31.956 -20.245  0.00  0.00     0.221 C 
ATOM     18  C   UNL d   1       7.279  29.610 -20.528  0.00  0.00     0.178 C 
ATOM     19  C   UNL d   1      12.993  33.430 -17.938  0.00  0.00     0.236 C 
ATOM     20  C   UNL d   1      13.377  31.004 -17.384  0.00  0.00     0.178 C 
ATOM     21  C   UNL d   1       6.320  29.069 -21.462  0.00  0.00     0.241 C 
ATOM     22  C   UNL d   1       8.569  33.137 -22.738  0.00  0.00     0.178 C 
ATOM     23  C   UNL d   1       9.514  33.969 -21.992  0.00  0.00     0.054 C 
ATOM     24  C   UNL d   1       8.981  31.262 -22.757  0.00  0.00     0.241 C 
ATOM     25  C   UNL d   1       9.914  31.809 -17.144  0.00  0.00     0.178 C 
ATOM     26  C   UNL d   1      12.029  30.302 -18.083  0.00  0.00     0.241 C 
ATOM     27  C   UNL d   1      10.865  33.441 -22.111  0.00  0.00     0.125 C 
ATOM     28  C   UNL d   1      11.912  34.813 -19.900  0.00  0.00     0.205 C 
ATOM     29  C   UNL d   1       9.542  33.646 -17.712  0.00  0.00     0.241 C 
ATOM     30  C   UNL d   1      11.775  35.491 -21.305  0.00  0.00     0.243 C 
ATOM     31  H   UNL d   1      10.507  31.658 -19.873  0.00  0.00     0.131 HD
ATOM     32  H   UNL d   1       5.368  30.218 -22.765  0.00  0.00     0.163 HD
ATOM     33  H   UNL d   1      14.737  32.717 -17.343  0.00  0.00     0.163 HD
ATOM     34  H   UNL d   1       8.840  29.243 -22.269  0.00  0.00     0.163 HD
ATOM     35  H   UNL d   1      10.085  30.109 -18.505  0.00  0.00     0.163 HD
ATOM     36  H   UNL d   1      11.618  34.985 -23.296  0.00  0.00     0.162 HD
ATOM     37  H   UNL d   1      10.339  35.590 -18.347  0.00  0.00     0.163 HD
ENDROOT
BRANCH  22  38
ATOM     38  N   UNL d   1       7.240  34.025 -22.170  0.00  0.00    -0.346 N 
ATOM     39  C   UNL d   1       6.634  35.278 -22.305  0.00  0.00     0.241 C 
ATOM     40  O   UNL d   1       7.225  36.300 -22.613  0.00  0.00    -0.271 OA
ATOM     41  H   UNL d   1       7.103  33.875 -21.189  0.00  0.00     0.163 HD
BRANCH  39  42
ATOM     42  C   UNL d   1       5.027  35.181 -22.002  0.00  0.00     0.178 C 
BRANCH  42  43
ATOM     43  N   UNL d   1       4.354  35.442 -20.712  0.00  0.00    -0.346 N 
ATOM     44  C   UNL d   1       4.781  34.829 -19.543  0.00  0.00     0.243 C 
ATOM     45  O   UNL d   1       5.789  34.124 -19.521  0.00  0.00    -0.271 OA
ATOM     46  H   UNL d   1       3.336  35.484 -20.751  0.00  0.00     0.163 HD
BRANCH  44  47
ATOM     47  C   UNL d   1       3.950  35.193 -18.255  0.00  0.00     0.205 C 
BRANCH  47  48
ATOM     48  N   UNL d   1       3.897  34.281 -17.004  0.00  0.00    -0.344 N 
ATOM     49  C   UNL d   1       2.968  33.273 -16.650  0.00  0.00     0.241 C 
ATOM     50  O   UNL d   1       2.064  32.962 -17.425  0.00  0.00    -0.271 OA
ATOM     51  H   UNL d   1       4.320  34.750 -16.206  0.00  0.00     0.163 HD
BRANCH  49  52
ATOM     52  C   UNL d   1       3.213  32.498 -15.183  0.00  0.00     0.178 C 
BRANCH  52  53
ATOM     53  N   UNL d   1       2.953  33.181 -13.771  0.00  0.00    -0.348 N 
ATOM     54  C   UNL d   1       1.749  33.660 -13.229  0.00  0.00     0.218 C 
ATOM     55  O   UNL d   1       0.725  33.784 -13.903  0.00  0.00    -0.274 OA
ATOM     56  H   UNL d   1       3.718  33.127 -13.110  0.00  0.00     0.163 HD
BRANCH  54  57
ATOM     57  C   UNL d   1       1.637  33.947 -11.680  0.00  0.00     0.103 C 
BRANCH  57  58
ATOM     58  C   UNL d   1       1.078  35.291 -11.161  0.00  0.00     0.010 C 
BRANCH  58  59
ATOM     59  C   UNL d   1       1.119  35.393  -9.624  0.00  0.00     0.005 C 
BRANCH  59  60
ATOM     60  C   UNL d   1       2.415  35.908  -8.944  0.00  0.00    -0.019 C 
ATOM     61  C   UNL d   1       3.057  34.751  -8.147  0.00  0.00     0.010 C 
BRANCH  60  62
ATOM     62  C   UNL d   1       2.265  37.194  -8.106  0.00  0.00    -0.000 C 
ATOM     63  C   UNL d   1       3.460  37.640  -7.275  0.00  0.00     0.005 C 
ENDBRANCH  60  62
ENDBRANCH  59  60
ENDBRANCH  58  59
ENDBRANCH  57  58
ENDBRANCH  54  57
ENDBRANCH  52  53
BRANCH  52  64
ATOM     64  C   UNL d   1       2.570  31.088 -15.233  0.00  0.00     0.064 C 
BRANCH  64  65
ATOM     65  C   UNL d   1       2.760  30.162 -14.025  0.00  0.00     0.269 C 
BRANCH  65  66
ATOM     66  N   UNL d   1       2.246  28.827 -14.320  0.00  0.00     0.078 N 
ATOM     67  H   UNL d   1       1.386  28.649 -13.805  0.00  0.00     0.312 HD
ATOM     68  H   UNL d   1       2.022  28.732 -15.311  0.00  0.00     0.312 HD
ENDBRANCH  65  66
ENDBRANCH  64  65
ENDBRANCH  52  64
ENDBRANCH  49  52
ENDBRANCH  47  48
BRANCH  47  69
ATOM     69  C   UNL d   1       4.521  36.608 -17.823  0.00  0.00     0.146 C 
ATOM     70  C   UNL d   1       4.718  36.855 -16.308  0.00  0.00     0.042 C 
BRANCH  69  71
ATOM     71  O   UNL d   1       5.776  36.809 -18.497  0.00  0.00    -0.393 OA
ATOM     72  H   UNL d   1       5.886  36.079 -19.131  0.00  0.00     0.210 HD
ENDBRANCH  69  71
ENDBRANCH  47  69
ENDBRANCH  44  47
ENDBRANCH  42  43
BRANCH  42  73
ATOM     73  C   UNL d   1       4.292  36.068 -23.020  0.00  0.00     0.064 C 
BRANCH  73  74
ATOM     74  C   UNL d   1       3.494  37.199 -22.426  0.00  0.00     0.269 C 
BRANCH  74  75
ATOM     75  N   UNL d   1       2.206  37.269 -23.079  0.00  0.00     0.078 N 
ATOM     76  H   UNL d   1       2.067  36.446 -23.662  0.00  0.00     0.312 HD
ATOM     77  H   UNL d   1       2.175  38.082 -23.697  0.00  0.00     0.312 HD
ENDBRANCH  74  75
ENDBRANCH  73  74
ENDBRANCH  42  73
ENDBRANCH  39  42
ENDBRANCH  22  38
BRANCH  18  78
ATOM     78  C   UNL d   1       6.094  30.730 -19.682  0.00  0.00     0.064 C 
BRANCH  78  79
ATOM     79  C   UNL d   1       5.258  30.841 -18.382  0.00  0.00     0.269 C 
BRANCH  79  80
ATOM     80  N   UNL d   1       5.977  31.360 -17.261  0.00  0.00     0.078 N 
ATOM     81  H   UNL d   1       5.769  30.789 -16.433  0.00  0.00     0.312 HD
ATOM     82  H   UNL d   1       5.608  32.274 -17.042  0.00  0.00     0.312 HD
ENDBRANCH  79  80
ENDBRANCH  78  79
ENDBRANCH  18  78
BRANCH  28  83
ATOM     83  C   UNL d   1      13.262  33.669 -20.517  0.00  0.00     0.146 C 
ATOM     84  C   UNL d   1      14.716  34.184 -20.419  0.00  0.00     0.042 C 
BRANCH  83  85
ATOM     85  O   UNL d   1      13.437  32.281 -20.248  0.00  0.00    -0.393 OA
ATOM     86  H   UNL d   1      13.032  32.044 -19.395  0.00  0.00     0.210 HD
ENDBRANCH  83  85
ENDBRANCH  28  83
BRANCH  15  87
ATOM     87  C   UNL d   1       6.227  32.112 -23.361  0.00  0.00     0.038 C 
BRANCH  87  88
ATOM     88  C   UNL d   1       5.130  31.719 -24.628  0.00  0.00    -0.020 C 
ATOM     89  C   UNL d   1       4.124  32.842 -24.906  0.00  0.00     0.009 C 
ATOM     90  C   UNL d   1       5.215  30.784 -25.874  0.00  0.00     0.009 C 
ENDBRANCH  87  88
ENDBRANCH  15  87
BRANCH  25  91
ATOM     91  C   UNL d   1       9.050  31.302 -15.952  0.00  0.00     0.064 C 
BRANCH  91  92
ATOM     92  C   UNL d   1       9.932  30.842 -14.833  0.00  0.00     0.269 C 
BRANCH  92  93
ATOM     93  N   UNL d   1       9.796  31.672 -13.651  0.00  0.00     0.078 N 
ATOM     94  H   UNL d   1       9.170  31.233 -12.974  0.00  0.00     0.312 HD
ATOM     95  H   UNL d   1      10.688  31.769 -13.161  0.00  0.00     0.312 HD
ENDBRANCH  92  93
ENDBRANCH  91  92
ENDBRANCH  25  91
BRANCH  16  96
ATOM     96  C   UNL d   1      11.642  33.555 -16.372  0.00  0.00     0.033 C 
BRANCH  96  97
ATOM     97  C   UNL d   1      11.572  35.167 -15.533  0.00  0.00    -0.021 C 
ATOM     98  C   UNL d   1      12.944  35.348 -14.798  0.00  0.00     0.009 C 
ATOM     99  C   UNL d   1      11.410  36.625 -16.117  0.00  0.00     0.009 C 
ENDBRANCH  96  97
ENDBRANCH  16  96
BRANCH  20 100
ATOM    100  C   UNL d   1      13.569  30.601 -15.956  0.00  0.00     0.064 C 
BRANCH 100 101
ATOM    101  C   UNL d   1      14.500  31.580 -15.289  0.00  0.00     0.269 C 
BRANCH 101 102
ATOM    102  N   UNL d   1      13.912  31.896 -13.970  0.00  0.00     0.078 N 
ATOM    103  H   UNL d   1      14.059  31.084 -13.360  0.00  0.00     0.312 HD
ATOM    104  H   UNL d   1      14.581  32.599 -13.549  0.00  0.00     0.312 HD
ENDBRANCH 101 102
ENDBRANCH 100 101
ENDBRANCH  20 100
TORSDOF 35
                                                                                                                                                                                                                           
ENDMDL
MODEL 9
REMARK VINA RESULT:    -6.841      1.925      3.225
REMARK INTER + INTRA:         -20.096
REMARK INTER:                 -15.775
REMARK INTRA:                  -4.321
REMARK UNBOUND:                -3.656
REMARK WARNING: 32 MAX_TORS EXCEEDED!!!
REMARK  35 active torsions:
REMARK  status: ('A' for Active; 'I' for Inactive)
REMARK    1  A    between atoms: C_66  and  O_7 
REMARK    2  A    between atoms: C_71  and  O_9 
REMARK    3  A    between atoms: C_41  and  N_18 
REMARK       I    between atoms: N_18  and  C_58 
REMARK    4  A    between atoms: C_51  and  N_21 
REMARK       I    between atoms: N_21  and  C_70 
REMARK    5  A    between atoms: C_61  and  N_23 
REMARK       I    between atoms: N_23  and  C_75 
REMARK    6  A    between atoms: C_67  and  N_24 
REMARK       I    between atoms: N_24  and  C_77 
REMARK    7  A    between atoms: N_25  and  C_57 
REMARK    8  A    between atoms: N_26  and  C_63 
REMARK    9  A    between atoms: N_27  and  C_74 
REMARK   10  A    between atoms: N_28  and  C_76 
REMARK   11  A    between atoms: N_29  and  C_81 
REMARK   12  A    between atoms: C_30  and  C_32 
REMARK   13  A    between atoms: C_31  and  C_33 
REMARK   14  A    between atoms: C_32  and  C_34 
REMARK   15  A    between atoms: C_33  and  C_35 
REMARK   16  A    between atoms: C_37  and  C_44 
REMARK   17  A    between atoms: C_39  and  C_48 
REMARK   18  A    between atoms: C_44  and  C_57 
REMARK   19  A    between atoms: C_48  and  C_63 
REMARK   20  A    between atoms: C_50  and  C_60 
REMARK   21  A    between atoms: C_51  and  C_58 
REMARK   22  A    between atoms: C_51  and  C_62 
REMARK   23  A    between atoms: C_54  and  C_55 
REMARK   24  A    between atoms: C_54  and  C_65 
REMARK   25  A    between atoms: C_55  and  C_59 
REMARK   26  A    between atoms: C_66  and  C_56 
REMARK   27  A    between atoms: C_59  and  C_69 
REMARK   28  A    between atoms: C_60  and  C_74 
REMARK   29  A    between atoms: C_61  and  C_70 
REMARK   30  A    between atoms: C_71  and  C_61 
REMARK   31  A    between atoms: C_62  and  C_76 
REMARK   32  A    between atoms: C_67  and  C_73 
REMARK   33  A    between atoms: C_67  and  C_75 
REMARK   34  A    between atoms: C_69  and  C_77 
REMARK   35  A    between atoms: C_73  and  C_81 
ROOT
ATOM      1  O   UNL d   1      -2.453  33.506  -3.796  0.00  0.00    -0.278 OA
ATOM      2  O   UNL d   1      -2.090  34.285   2.197  0.00  0.00    -0.272 OA
ATOM      3  O   UNL d   1      -2.634  33.074  -8.451  0.00  0.00    -0.271 OA
ATOM      4  O   UNL d   1       1.289  33.382  -4.553  0.00  0.00    -0.271 OA
ATOM      5  O   UNL d   1      -2.251  30.716  -1.663  0.00  0.00    -0.271 OA
ATOM      6  O   UNL d   1      -4.656  36.446  -1.334  0.00  0.00    -0.271 OA
ATOM      7  O   UNL d   1       0.979  37.073   0.774  0.00  0.00    -0.271 OA
ATOM      8  N   UNL d   1      -2.052  34.430  -2.041  0.00  0.00    -0.248 NA
ATOM      9  N   UNL d   1      -1.370  34.597  -7.208  0.00  0.00    -0.347 N 
ATOM     10  N   UNL d   1      -2.797  32.251   1.574  0.00  0.00    -0.346 N 
ATOM     11  N   UNL d   1      -0.892  33.304  -5.361  0.00  0.00    -0.346 N 
ATOM     12  N   UNL d   1      -3.781  32.333  -1.900  0.00  0.00    -0.346 N 
ATOM     13  N   UNL d   1       1.332  35.520  -0.839  0.00  0.00    -0.359 N 
ATOM     14  N   UNL d   1      -2.435  35.944  -0.345  0.00  0.00    -0.344 N 
ATOM     15  C   UNL d   1      -1.336  35.416  -5.626  0.00  0.00     0.171 C 
ATOM     16  C   UNL d   1      -2.754  33.881  -0.236  0.00  0.00     0.155 C 
ATOM     17  C   UNL d   1      -2.093  34.734  -3.768  0.00  0.00     0.221 C 
ATOM     18  C   UNL d   1      -2.627  33.419  -6.054  0.00  0.00     0.178 C 
ATOM     19  C   UNL d   1      -2.457  33.548   1.287  0.00  0.00     0.236 C 
ATOM     20  C   UNL d   1      -3.191  31.247   0.577  0.00  0.00     0.178 C 
ATOM     21  C   UNL d   1      -2.179  33.514  -7.424  0.00  0.00     0.241 C 
ATOM     22  C   UNL d   1       0.386  35.893  -4.108  0.00  0.00     0.178 C 
ATOM     23  C   UNL d   1       0.150  36.065  -2.674  0.00  0.00     0.054 C 
ATOM     24  C   UNL d   1       0.274  34.082  -4.735  0.00  0.00     0.241 C 
ATOM     25  C   UNL d   1      -4.510  33.716  -1.627  0.00  0.00     0.178 C 
ATOM     26  C   UNL d   1      -3.120  31.392  -1.088  0.00  0.00     0.241 C 
ATOM     27  C   UNL d   1       0.657  34.921  -1.931  0.00  0.00     0.125 C 
ATOM     28  C   UNL d   1      -0.819  35.410   0.403  0.00  0.00     0.205 C 
ATOM     29  C   UNL d   1      -3.845  35.510  -1.209  0.00  0.00     0.241 C 
ATOM     30  C   UNL d   1       0.531  36.146   0.109  0.00  0.00     0.243 C 
ATOM     31  H   UNL d   1      -1.800  33.448  -2.265  0.00  0.00     0.131 HD
ATOM     32  H   UNL d   1      -1.140  35.069  -8.078  0.00  0.00     0.163 HD
ATOM     33  H   UNL d   1      -2.500  31.998   2.512  0.00  0.00     0.163 HD
ATOM     34  H   UNL d   1      -0.523  32.404  -5.676  0.00  0.00     0.163 HD
ATOM     35  H   UNL d   1      -3.440  32.263  -2.858  0.00  0.00     0.163 HD
ATOM     36  H   UNL d   1       2.244  35.919  -1.014  0.00  0.00     0.162 HD
ATOM     37  H   UNL d   1      -2.693  36.792   0.150  0.00  0.00     0.163 HD
ENDROOT
BRANCH  22  38
ATOM     38  N   UNL d   1      -0.475  37.305  -4.485  0.00  0.00    -0.346 N 
ATOM     39  C   UNL d   1      -1.474  38.137  -3.971  0.00  0.00     0.241 C 
ATOM     40  O   UNL d   1      -2.349  37.770  -3.204  0.00  0.00    -0.271 OA
ATOM     41  H   UNL d   1      -0.721  37.323  -5.457  0.00  0.00     0.163 HD
BRANCH  39  42
ATOM     42  C   UNL d   1      -1.301  39.666  -4.532  0.00  0.00     0.178 C 
BRANCH  42  43
ATOM     43  N   UNL d   1      -1.187  40.080  -5.946  0.00  0.00    -0.346 N 
ATOM     44  C   UNL d   1      -0.317  41.091  -6.329  0.00  0.00     0.243 C 
ATOM     45  O   UNL d   1       0.455  41.612  -5.525  0.00  0.00    -0.271 OA
ATOM     46  H   UNL d   1      -2.067  40.145  -6.455  0.00  0.00     0.163 HD
BRANCH  44  47
ATOM     47  C   UNL d   1      -0.324  41.430  -7.868  0.00  0.00     0.205 C 
BRANCH  47  48
ATOM     48  N   UNL d   1       0.298  40.498  -8.938  0.00  0.00    -0.344 N 
ATOM     49  C   UNL d   1       1.078  40.810 -10.077  0.00  0.00     0.241 C 
ATOM     50  O   UNL d   1       1.414  41.972 -10.298  0.00  0.00    -0.271 OA
ATOM     51  H   UNL d   1      -0.262  39.654  -9.040  0.00  0.00     0.163 HD
BRANCH  49  52
ATOM     52  C   UNL d   1       1.564  39.525 -11.038  0.00  0.00     0.178 C 
BRANCH  52  53
ATOM     53  N   UNL d   1       1.108  38.021 -10.795  0.00  0.00    -0.348 N 
ATOM     54  C   UNL d   1      -0.152  37.529 -10.414  0.00  0.00     0.218 C 
ATOM     55  O   UNL d   1      -1.055  38.267 -10.017  0.00  0.00    -0.274 OA
ATOM     56  H   UNL d   1       1.759  37.310 -11.102  0.00  0.00     0.163 HD
BRANCH  54  57
ATOM     57  C   UNL d   1      -0.493  35.999 -10.599  0.00  0.00     0.103 C 
BRANCH  57  58
ATOM     58  C   UNL d   1       0.602  34.985 -11.003  0.00  0.00     0.010 C 
BRANCH  58  59
ATOM     59  C   UNL d   1       0.260  33.545 -10.574  0.00  0.00     0.005 C 
BRANCH  59  60
ATOM     60  C   UNL d   1       0.173  32.443 -11.664  0.00  0.00    -0.019 C 
ATOM     61  C   UNL d   1      -1.125  31.633 -11.456  0.00  0.00     0.010 C 
BRANCH  60  62
ATOM     62  C   UNL d   1       1.418  31.542 -11.804  0.00  0.00    -0.000 C 
ATOM     63  C   UNL d   1       2.231  31.654 -13.085  0.00  0.00     0.005 C 
ENDBRANCH  60  62
ENDBRANCH  59  60
ENDBRANCH  58  59
ENDBRANCH  57  58
ENDBRANCH  54  57
ENDBRANCH  52  53
BRANCH  52  64
ATOM     64  C   UNL d   1       1.399  39.908 -12.531  0.00  0.00     0.064 C 
BRANCH  64  65
ATOM     65  C   UNL d   1       0.068  40.527 -12.978  0.00  0.00     0.269 C 
BRANCH  65  66
ATOM     66  N   UNL d   1       0.254  41.929 -13.343  0.00  0.00     0.078 N 
ATOM     67  H   UNL d   1      -0.633  42.429 -13.320  0.00  0.00     0.312 HD
ATOM     68  H   UNL d   1       0.876  42.399 -12.685  0.00  0.00     0.312 HD
ENDBRANCH  65  66
ENDBRANCH  64  65
ENDBRANCH  52  64
ENDBRANCH  49  52
ENDBRANCH  47  48
BRANCH  47  69
ATOM     69  C   UNL d   1      -1.860  41.630  -8.206  0.00  0.00     0.146 C 
ATOM     70  C   UNL d   1      -2.213  42.675  -9.291  0.00  0.00     0.042 C 
BRANCH  69  71
ATOM     71  O   UNL d   1      -2.402  40.354  -8.589  0.00  0.00    -0.393 OA
ATOM     72  H   UNL d   1      -1.892  40.040  -9.356  0.00  0.00     0.210 HD
ENDBRANCH  69  71
ENDBRANCH  47  69
ENDBRANCH  44  47
ENDBRANCH  42  43
BRANCH  42  73
ATOM     73  C   UNL d   1      -2.443  40.520  -3.958  0.00  0.00     0.064 C 
BRANCH  73  74
ATOM     74  C   UNL d   1      -2.120  41.245  -2.678  0.00  0.00     0.269 C 
BRANCH  74  75
ATOM     75  N   UNL d   1      -0.815  41.859  -2.794  0.00  0.00     0.078 N 
ATOM     76  H   UNL d   1      -0.148  41.371  -2.201  0.00  0.00     0.312 HD
ATOM     77  H   UNL d   1      -0.857  42.825  -2.464  0.00  0.00     0.312 HD
ENDBRANCH  74  75
ENDBRANCH  73  74
ENDBRANCH  42  73
ENDBRANCH  39  42
ENDBRANCH  22  38
BRANCH  18  78
ATOM     78  C   UNL d   1      -3.661  34.936  -6.098  0.00  0.00     0.064 C 
BRANCH  78  79
ATOM     79  C   UNL d   1      -5.025  35.482  -5.603  0.00  0.00     0.269 C 
BRANCH  79  80
ATOM     80  N   UNL d   1      -4.928  36.450  -4.556  0.00  0.00     0.078 N 
ATOM     81  H   UNL d   1      -5.871  36.752  -4.286  0.00  0.00     0.312 HD
ATOM     82  H   UNL d   1      -4.489  37.279  -4.930  0.00  0.00     0.312 HD
ENDBRANCH  79  80
ENDBRANCH  78  79
ENDBRANCH  18  78
BRANCH  28  83
ATOM     83  C   UNL d   1       0.057  33.772   0.649  0.00  0.00     0.146 C 
ATOM     84  C   UNL d   1       0.558  33.453   2.076  0.00  0.00     0.042 C 
BRANCH  83  85
ATOM     85  O   UNL d   1      -0.336  32.481   0.195  0.00  0.00    -0.393 OA
ATOM     86  H   UNL d   1      -1.001  32.554  -0.512  0.00  0.00     0.210 HD
ENDBRANCH  83  85
ENDBRANCH  28  83
BRANCH  15  87
ATOM     87  C   UNL d   1      -0.010  36.274  -6.682  0.00  0.00     0.038 C 
BRANCH  87  88
ATOM     88  C   UNL d   1       1.509  36.249  -7.492  0.00  0.00    -0.020 C 
ATOM     89  C   UNL d   1       2.292  37.556  -7.317  0.00  0.00     0.009 C 
ATOM     90  C   UNL d   1       2.494  35.110  -7.898  0.00  0.00     0.009 C 
ENDBRANCH  87  88
ENDBRANCH  15  87
BRANCH  25  91
ATOM     91  C   UNL d   1      -5.989  33.658  -2.108  0.00  0.00     0.064 C 
BRANCH  91  92
ATOM     92  C   UNL d   1      -6.647  32.409  -1.611  0.00  0.00     0.269 C 
BRANCH  92  93
ATOM     93  N   UNL d   1      -7.582  32.671  -0.534  0.00  0.00     0.078 N 
ATOM     94  H   UNL d   1      -8.034  33.578  -0.663  0.00  0.00     0.312 HD
ATOM     95  H   UNL d   1      -8.348  31.994  -0.534  0.00  0.00     0.312 HD
ENDBRANCH  92  93
ENDBRANCH  91  92
ENDBRANCH  25  91
BRANCH  16  96
ATOM     96  C   UNL d   1      -4.361  34.260   0.885  0.00  0.00     0.033 C 
BRANCH  96  97
ATOM     97  C   UNL d   1      -4.868  35.552   2.059  0.00  0.00    -0.021 C 
ATOM     98  C   UNL d   1      -6.270  36.064   1.583  0.00  0.00     0.009 C 
ATOM     99  C   UNL d   1      -5.146  35.480   3.612  0.00  0.00     0.009 C 
ENDBRANCH  96  97
ENDBRANCH  16  96
BRANCH  20 100
ATOM    100  C   UNL d   1      -4.503  30.715   1.060  0.00  0.00     0.064 C 
BRANCH 100 101
ATOM    101  C   UNL d   1      -4.445  30.549   2.557  0.00  0.00     0.269 C 
BRANCH 101 102
ATOM    102  N   UNL d   1      -4.223  29.111   2.817  0.00  0.00     0.078 N 
ATOM    103  H   UNL d   1      -3.736  28.717   2.004  0.00  0.00     0.312 HD
ATOM    104  H   UNL d   1      -3.459  29.094   3.548  0.00  0.00     0.312 HD
ENDBRANCH 101 102
ENDBRANCH 100 101
ENDBRANCH  20 100
TORSDOF 35
                                                                                                                                                                                                                           
ENDMDL
