REMARK  6 active torsions:
REMARK  status: ('A' for Active; 'I' for Inactive)
REMARK    1  A    between atoms: O_3  and  C_16 
REMARK    2  A    between atoms: N_7  and  CA_12 
REMARK       I    between atoms: N_7  and  C_17 
REMARK    3  A    between atoms: N_8  and  CA_18 
REMARK    4  A    between atoms: CA_11  and  C_16 
REMARK    5  A    between atoms: C_17  and  CA_18 
REMARK    6  A    between atoms: CA_18  and  C_19 
ROOT
ATOM      1  S   UNL d   1      -0.540   0.661   1.083  0.00  0.00    -0.135 SA
ATOM      2  O   UNL d   1      -2.130  -2.194  -1.872  0.00  0.00    -0.277 OA
ATOM      3  N   UNL d   1      -2.367  -0.879   0.073  0.00  0.00    -0.219 NA
ATOM      4  C   UNL d   1      -1.324  -0.993   1.096  0.00  0.00     0.160 A 
ATOM      5  C   UNL d   1      -2.154   1.464   0.612  0.00  0.00     0.029 C 
ATOM      6  CA  UNL d   1      -2.808   0.439  -0.338  0.00  0.00     0.182 C 
ATOM      7  CA  UNL d   1      -0.674  -2.073   0.221  0.00  0.00     0.199 A 
ATOM      8  C   UNL d   1      -1.841  -1.826  -0.756  0.00  0.00     0.227 A 
ATOM      9  C   UNL d   1      -2.942   1.731   1.902  0.00  0.00     0.029 C 
ATOM     10  C   UNL d   1      -1.862   2.783  -0.105  0.00  0.00     0.029 C 
ENDROOT
BRANCH   7  11
ATOM     11  N   UNL d   1       0.651  -1.783  -0.344  0.00  0.00    -0.344 N 
ATOM     12  C   UNL d   1       1.820  -1.778   0.420  0.00  0.00     0.256 C 
ATOM     13  O   UNL d   1       1.850  -2.015   1.626  0.00  0.00    -0.271 OA
ATOM     14  H   UNL d   1       0.732  -1.570  -1.336  0.00  0.00     0.163 HD
BRANCH  12  15
ATOM     15  CA  UNL d   1       3.062  -1.427  -0.393  0.00  0.00     0.342 C 
BRANCH  15  16
ATOM     16  N   UNL d   1       4.189  -2.179   0.165  0.00  0.00     0.096 N 
ATOM     17  H1  UNL d   1       5.019  -2.022  -0.406  0.00  0.00     0.314 HD
ATOM     18  H2  UNL d   1       3.995  -3.178   0.103  0.00  0.00     0.314 HD
ENDBRANCH  15  16
BRANCH  15  19
ATOM     19  C   UNL d   1       3.306   0.068  -0.387  0.00  0.00    -0.016 A 
ATOM     20  C   UNL d   1       2.733   0.848  -1.375  0.00  0.00     0.010 A 
ATOM     21  C   UNL d   1       2.958   2.225  -1.370  0.00  0.00     0.001 A 
ATOM     22  C   UNL d   1       3.751   2.798  -0.377  0.00  0.00     0.000 A 
ATOM     23  C   UNL d   1       4.320   1.995   0.612  0.00  0.00     0.001 A 
ATOM     24  C   UNL d   1       4.096   0.618   0.606  0.00  0.00     0.010 A 
ENDBRANCH  15  19
ENDBRANCH  12  15
ENDBRANCH   7  11
BRANCH   6  25
ATOM     25  C   UNL d   1      -4.303   0.426  -0.334  0.00  0.00     0.160 C 
ATOM     26  OXT UNL d   1      -4.996  -0.512   0.032  0.00  0.00    -0.649 OA
BRANCH  25  27
ATOM     27  O   UNL d   1      -4.794   1.603  -0.795  0.00  0.00    -0.775 OA
ATOM     28  H   UNL d   1      -5.774   1.615  -0.799  0.00  0.00     0.167 HD
ENDBRANCH  25  27
ENDBRANCH   6  25
TORSDOF 6
