REMARK  10 active torsions:
REMARK  status: ('A' for Active; 'I' for Inactive)
REMARK    1  A    between atoms: O_4  and  C_21 
REMARK    2  A    between atoms: O_4  and  C_26 
REMARK    3  A    between atoms: O_5  and  C_22 
REMARK    4  A    between atoms: O_8  and  N_12 
REMARK    5  A    between atoms: N_11  and  CA_16 
REMARK       I    between atoms: N_11  and  C_23 
REMARK    6  A    between atoms: N_14  and  C_29 
REMARK    7  A    between atoms: CA_18  and  C_22 
REMARK    8  A    between atoms: C_19  and  C_21 
REMARK    9  A    between atoms: C_23  and  C_24 
REMARK   10  A    between atoms: C_24  and  C_25 
ROOT
ATOM      1  S   UNL d   1      -0.919   0.759  -1.926  0.00  0.00    -0.136 SA
ATOM      2  O   UNL d   1      -0.041   0.973   2.635  0.00  0.00    -0.271 OA
ATOM      3  N   UNL d   1      -1.368   0.931   0.686  0.00  0.00    -0.293 N 
ATOM      4  C   UNL d   1      -0.987   1.775  -0.432  0.00  0.00     0.187 C 
ATOM      5  CA  UNL d   1       0.349   1.992   0.311  0.00  0.00     0.211 C 
ATOM      6  C   UNL d   1      -0.332   1.246   1.494  0.00  0.00     0.251 C 
ATOM      7  CA  UNL d   1      -2.474   0.144   0.694  0.00  0.00     0.117 C 
ATOM      8  C   UNL d   1      -3.150  -0.139  -0.445  0.00  0.00    -0.013 C 
ATOM      9  C   UNL d   1      -2.684   0.304  -1.830  0.00  0.00     0.115 C 
ENDROOT
BRANCH   5  10
ATOM     10  N   UNL d   1       1.548   1.320  -0.190  0.00  0.00    -0.339 N 
ATOM     11  C   UNL d   1       2.713   1.220   0.549  0.00  0.00     0.275 C 
ATOM     12  O   UNL d   1       2.940   1.641   1.672  0.00  0.00    -0.266 OA
ATOM     13  H   UNL d   1       1.541   0.908  -1.120  0.00  0.00     0.163 HD
BRANCH  11  14
ATOM     14  C   UNL d   1       3.811   0.488  -0.178  0.00  0.00     0.180 C 
ATOM     15  N   UNL d   1       4.642   1.141  -0.933  0.00  0.00    -0.126 NA
BRANCH  15  16
ATOM     16  O   UNL d   1       4.363   2.514  -0.948  0.00  0.00    -0.261 OA
ATOM     17  C   UNL d   1       5.312   3.148  -1.792  0.00  0.00     0.240 C 
ENDBRANCH  15  16
BRANCH  14  18
ATOM     18  C   UNL d   1       3.966  -0.966  -0.061  0.00  0.00     0.102 A 
ATOM     19  N   UNL d   1       4.980  -1.616  -0.737  0.00  0.00    -0.222 NA
ATOM     20  C   UNL d   1       4.910  -2.902  -0.474  0.00  0.00     0.164 A 
ATOM     21  S   UNL d   1       3.649  -3.399   0.578  0.00  0.00    -0.062 SA
ATOM     22  C   UNL d   1       3.142  -1.766   0.704  0.00  0.00     0.087 A 
BRANCH  20  23
ATOM     23  N   UNL d   1       5.760  -3.834  -0.979  0.00  0.00    -0.378 N 
ATOM     24  H   UNL d   1       5.671  -4.819  -0.750  0.00  0.00     0.158 HD
ATOM     25  H   UNL d   1       6.519  -3.583  -1.605  0.00  0.00     0.158 HD
ENDBRANCH  20  23
ENDBRANCH  14  18
ENDBRANCH  11  14
ENDBRANCH   5  10
BRANCH   7  26
ATOM     26  C   UNL d   1      -2.868  -0.439   1.986  0.00  0.00     0.194 C 
ATOM     27  OXT UNL d   1      -2.900  -1.631   2.217  0.00  0.00    -0.645 OA
BRANCH  26  28
ATOM     28  O   UNL d   1      -3.180   0.550   2.846  0.00  0.00    -0.772 OA
ATOM     29  H   UNL d   1      -3.449   0.205   3.724  0.00  0.00     0.167 HD
ENDBRANCH  26  28
ENDBRANCH   7  26
BRANCH   8  30
ATOM     30  C   UNL d   1      -4.431  -0.936  -0.506  0.00  0.00     0.216 C 
BRANCH  30  31
ATOM     31  O   UNL d   1      -5.450  -0.140  -1.074  0.00  0.00    -0.317 OA
BRANCH  31  32
ATOM     32  C   UNL d   1      -6.681  -0.732  -1.196  0.00  0.00     0.255 C 
ATOM     33  O   UNL d   1      -6.962  -1.874  -0.859  0.00  0.00    -0.266 OA
ATOM     34  C   UNL d   1      -7.658   0.225  -1.810  0.00  0.00     0.126 C 
ENDBRANCH  31  32
ENDBRANCH  30  31
ENDBRANCH   8  30
TORSDOF 10
