REMARK  10 active torsions:
REMARK  status: ('A' for Active; 'I' for Inactive)
REMARK    1  A    between atoms: S_1  and  C_17 
REMARK    2  A    between atoms: S_1  and  C_21 
REMARK    3  A    between atoms: S_2  and  N_11 
REMARK    4  A    between atoms: S_2  and  N_12 
REMARK    5  A    between atoms: O_4  and  C_19 
REMARK    6  A    between atoms: O_5  and  C_26 
REMARK    7  A    between atoms: N_11  and  C_27 
REMARK    8  A    between atoms: C_14  and  C_19 
REMARK    9  A    between atoms: C_18  and  C_26 
REMARK   10  A    between atoms: C_23  and  C_27 
ROOT
ATOM      1  O   UNL d   1       4.961   1.938   0.288  0.00  0.00    -0.279 OA
ATOM      2  N   UNL d   1       3.152   0.574  -0.367  0.00  0.00    -0.206 NA
ATOM      3  C   UNL d   1       3.219  -0.874  -0.084  0.00  0.00     0.095 A 
ATOM      4  C   UNL d   1       4.672  -0.598   0.418  0.00  0.00     0.120 A 
ATOM      5  C   UNL d   1       1.951  -1.147   0.752  0.00  0.00     0.043 C 
ATOM      6  C   UNL d   1       4.390   0.887   0.103  0.00  0.00     0.213 A 
ATOM      7  C   UNL d   1       1.213   0.178   0.673  0.00  0.00     0.013 C 
ATOM      8  C   UNL d   1       1.967   1.099   0.057  0.00  0.00     0.105 C 
ATOM      9  C   UNL d   1       2.225  -1.628   2.168  0.00  0.00     0.017 C 
ENDROOT
BRANCH   7  10
ATOM     10  S   UNL d   1      -0.364   0.406   1.316  0.00  0.00    -0.125 SA
BRANCH  10  11
ATOM     11  C   UNL d   1      -1.284  -0.810   0.341  0.00  0.00     0.082 C 
ATOM     12  C   UNL d   1      -2.772  -0.811   0.649  0.00  0.00     0.054 C 
ATOM     13  C   UNL d   1      -3.384  -1.442  -0.605  0.00  0.00     0.239 C 
ATOM     14  N   UNL d   1      -2.377  -1.310  -1.670  0.00  0.00     0.090 N 
ATOM     15  C   UNL d   1      -1.271  -0.503  -1.146  0.00  0.00     0.285 C 
ATOM     16  H   UNL d   1      -2.764  -0.882  -2.509  0.00  0.00     0.316 HD
BRANCH  13  17
ATOM     17  C   UNL d   1      -4.718  -0.814  -0.986  0.00  0.00     0.168 C 
BRANCH  17  18
ATOM     18  N   UNL d   1      -5.685  -0.943   0.095  0.00  0.00    -0.305 N 
ATOM     19  H   UNL d   1      -6.019  -1.908   0.223  0.00  0.00     0.173 HD
BRANCH  18  20
ATOM     20  S   UNL d   1      -6.881   0.284   0.290  0.00  0.00     0.294 S 
ATOM     21  O   UNL d   1      -7.932  -0.227   1.151  0.00  0.00    -0.189 OA
ATOM     22  O   UNL d   1      -6.222   1.538   0.600  0.00  0.00    -0.189 OA
BRANCH  20  23
ATOM     23  N   UNL d   1      -7.496   0.369  -1.310  0.00  0.00    -0.212 NA
ATOM     24  H   UNL d   1      -8.043   1.212  -1.531  0.00  0.00     0.137 HD
ATOM     25  H   UNL d   1      -7.982  -0.474  -1.644  0.00  0.00     0.137 HD
ENDBRANCH  20  23
ENDBRANCH  18  20
ENDBRANCH  17  18
ENDBRANCH  13  17
ENDBRANCH  10  11
ENDBRANCH   7  10
BRANCH   8  26
ATOM     26  C   UNL d   1       1.670   2.512  -0.150  0.00  0.00     0.189 C 
ATOM     27  O   UNL d   1       0.991   3.198   0.597  0.00  0.00    -0.645 OA
BRANCH  26  28
ATOM     28  O   UNL d   1       2.258   2.941  -1.289  0.00  0.00    -0.772 OA
ATOM     29  H   UNL d   1       2.080   3.890  -1.460  0.00  0.00     0.167 HD
ENDBRANCH  26  28
ENDBRANCH   8  26
BRANCH   4  30
ATOM     30  C   UNL d   1       5.889  -1.162  -0.269  0.00  0.00     0.128 C 
ATOM     31  C   UNL d   1       6.077  -2.639   0.060  0.00  0.00     0.040 C 
BRANCH  30  32
ATOM     32  O   UNL d   1       5.750  -1.016  -1.683  0.00  0.00    -0.395 OA
ATOM     33  H   UNL d   1       6.554  -1.376  -2.095  0.00  0.00     0.210 HD
ENDBRANCH  30  32
ENDBRANCH   4  30
TORSDOF 10
