REMARK  10 active torsions:
REMARK  status: ('A' for Active; 'I' for Inactive)
REMARK    1  A    between atoms: S_1  and  C_16 
REMARK    2  A    between atoms: S_1  and  C_20 
REMARK    3  A    between atoms: O_3  and  C_18 
REMARK    4  A    between atoms: O_4  and  C_24 
REMARK    5  A    between atoms: O_7  and  C_33 
REMARK       I    between atoms: N_11  and  C_26 
REMARK    6  A    between atoms: N_11  and  C_27 
REMARK    7  A    between atoms: C_13  and  C_18 
REMARK    8  A    between atoms: C_17  and  C_24 
REMARK    9  A    between atoms: C_25  and  C_26 
REMARK   10  A    between atoms: C_30  and  C_33 
ROOT
ATOM      1  N   UNL d   1      -0.998  -1.452  -0.127  0.00  0.00     0.098 N 
ATOM      2  C   UNL d   1       0.638  -0.849   1.431  0.00  0.00     0.083 C 
ATOM      3  C   UNL d   1      -0.686  -0.857   2.189  0.00  0.00     0.062 C 
ATOM      4  C   UNL d   1       0.221  -0.636  -0.012  0.00  0.00     0.286 C 
ATOM      5  C   UNL d   1      -1.719  -1.268   1.141  0.00  0.00     0.313 C 
ATOM      6  H   UNL d   1      -1.553  -1.182  -0.936  0.00  0.00     0.317 HD
ENDROOT
BRANCH   2   7
ATOM      7  S   UNL d   1       1.788   0.425   2.014  0.00  0.00    -0.125 SA
BRANCH   7   8
ATOM      8  C   UNL d   1       3.099   0.166   0.934  0.00  0.00     0.013 C 
ATOM      9  C   UNL d   1       3.853  -1.151   0.856  0.00  0.00     0.043 C 
ATOM     10  C   UNL d   1       4.801  -0.922  -0.340  0.00  0.00     0.095 A 
ATOM     11  C   UNL d   1       4.554  -1.548   2.144  0.00  0.00     0.017 C 
ATOM     12  N   UNL d   1       4.622   0.507  -0.667  0.00  0.00    -0.206 NA
ATOM     13  C   UNL d   1       6.332  -0.613  -0.320  0.00  0.00     0.120 A 
ATOM     14  C   UNL d   1       5.938   0.851  -0.614  0.00  0.00     0.213 A 
ATOM     15  C   UNL d   1       3.611   1.052   0.070  0.00  0.00     0.105 C 
ATOM     16  O   UNL d   1       6.516   1.912  -0.668  0.00  0.00    -0.279 OA
BRANCH  15  17
ATOM     17  C   UNL d   1       3.237   2.450  -0.114  0.00  0.00     0.189 C 
ATOM     18  O   UNL d   1       2.803   3.175   0.767  0.00  0.00    -0.645 OA
BRANCH  17  19
ATOM     19  O   UNL d   1       3.442   2.815  -1.399  0.00  0.00    -0.772 OA
ATOM     20  H   UNL d   1       3.201   3.752  -1.559  0.00  0.00     0.167 HD
ENDBRANCH  17  19
ENDBRANCH  15  17
BRANCH  13  21
ATOM     21  C   UNL d   1       7.294  -1.212  -1.314  0.00  0.00     0.128 C 
ATOM     22  C   UNL d   1       7.603  -2.668  -0.978  0.00  0.00     0.040 C 
BRANCH  21  23
ATOM     23  O   UNL d   1       6.729  -1.149  -2.624  0.00  0.00    -0.395 OA
ATOM     24  H   UNL d   1       7.377  -1.529  -3.241  0.00  0.00     0.210 HD
ENDBRANCH  21  23
ENDBRANCH  13  21
ENDBRANCH   7   8
ENDBRANCH   2   7
BRANCH   5  25
ATOM     25  C   UNL d   1      -2.739  -0.199   0.906  0.00  0.00     0.255 C 
ATOM     26  O   UNL d   1      -2.473   0.980   1.114  0.00  0.00    -0.271 OA
ATOM     27  N   UNL d   1      -3.936  -0.740   0.454  0.00  0.00    -0.325 N 
ATOM     28  H   UNL d   1      -3.981  -1.750   0.331  0.00  0.00     0.169 HD
BRANCH  27  29
ATOM     29  C   UNL d   1      -5.125  -0.047   0.126  0.00  0.00     0.035 A 
ATOM     30  C   UNL d   1      -6.229  -0.762  -0.310  0.00  0.00     0.047 A 
ATOM     31  C   UNL d   1      -7.401  -0.077  -0.632  0.00  0.00     0.039 A 
ATOM     32  C   UNL d   1      -7.453   1.311  -0.514  0.00  0.00     0.018 A 
ATOM     33  C   UNL d   1      -6.333   2.016  -0.073  0.00  0.00     0.003 A 
ATOM     34  C   UNL d   1      -5.161   1.332   0.249  0.00  0.00     0.029 A 
BRANCH  31  35
ATOM     35  C   UNL d   1      -8.569  -0.811  -1.093  0.00  0.00     0.176 C 
ATOM     36  O   UNL d   1      -8.635  -2.037  -1.234  0.00  0.00    -0.646 OA
BRANCH  35  37
ATOM     37  O   UNL d   1      -9.624   0.005  -1.363  0.00  0.00    -0.773 OA
ATOM     38  H   UNL d   1     -10.406  -0.499  -1.672  0.00  0.00     0.167 HD
ENDBRANCH  35  37
ENDBRANCH  31  35
ENDBRANCH  27  29
ENDBRANCH   5  25
TORSDOF 10
