REMARK  9 active torsions:
REMARK  status: ('A' for Active; 'I' for Inactive)
REMARK    1  A    between atoms: S_1  and  C_15 
REMARK    2  A    between atoms: S_1  and  C_18 
REMARK    3  A    between atoms: O_2  and  C_13 
REMARK    4  A    between atoms: O_4  and  C_17 
REMARK    5  A    between atoms: N_7  and  C_19 
REMARK    6  A    between atoms: N_8  and  C_20 
REMARK    7  A    between atoms: C_10  and  C_13 
REMARK    8  A    between atoms: C_14  and  C_17 
REMARK    9  A    between atoms: C_18  and  C_19 
ROOT
ATOM      1  O   UNL d   1       2.492   1.545   1.440  0.00  0.00    -0.279 OA
ATOM      2  N   UNL d   1       1.660   0.647  -0.577  0.00  0.00    -0.207 NA
ATOM      3  C   UNL d   1       2.075  -0.722  -0.954  0.00  0.00     0.091 A 
ATOM      4  C   UNL d   1       2.979  -0.694   0.308  0.00  0.00     0.120 A 
ATOM      5  C   UNL d   1       0.760  -1.504  -1.053  0.00  0.00     0.069 C 
ATOM      6  C   UNL d   1       2.415   0.723   0.556  0.00  0.00     0.213 A 
ATOM      7  C   UNL d   1       0.299   0.753  -0.630  0.00  0.00     0.105 C 
ATOM      8  C   UNL d   1      -0.279  -0.420  -0.917  0.00  0.00     0.008 C 
ENDROOT
BRANCH   8   9
ATOM      9  S   UNL d   1      -1.957  -0.748  -1.058  0.00  0.00    -0.131 SA
BRANCH   9  10
ATOM     10  C   UNL d   1      -2.339  -1.200   0.651  0.00  0.00     0.101 C 
BRANCH  10  11
ATOM     11  C   UNL d   1      -3.803  -1.589   0.789  0.00  0.00     0.160 C 
BRANCH  11  12
ATOM     12  N   UNL d   1      -4.632  -0.442   0.410  0.00  0.00    -0.284 NA
ATOM     13  C   UNL d   1      -5.900  -0.639   0.453  0.00  0.00     0.193 C 
BRANCH  13  14
ATOM     14  N   UNL d   1      -6.973   0.164   0.180  0.00  0.00    -0.394 N 
ATOM     15  H   UNL d   1      -7.926  -0.172   0.273  0.00  0.00     0.156 HD
ATOM     16  H   UNL d   1      -6.846   1.123  -0.124  0.00  0.00     0.156 HD
ENDBRANCH  13  14
ENDBRANCH  11  12
ENDBRANCH  10  11
ENDBRANCH   9  10
ENDBRANCH   8   9
BRANCH   7  17
ATOM     17  C   UNL d   1      -0.351   2.025  -0.333  0.00  0.00     0.189 C 
ATOM     18  O   UNL d   1      -1.445   2.140   0.199  0.00  0.00    -0.645 OA
BRANCH  17  19
ATOM     19  O   UNL d   1       0.437   3.047  -0.733  0.00  0.00    -0.772 OA
ATOM     20  H   UNL d   1       0.030   3.920  -0.547  0.00  0.00     0.167 HD
ENDBRANCH  17  19
ENDBRANCH   7  17
BRANCH   4  21
ATOM     21  C   UNL d   1       4.474  -0.748   0.101  0.00  0.00     0.128 C 
ATOM     22  C   UNL d   1       5.220  -0.246   1.333  0.00  0.00     0.040 C 
BRANCH  21  23
ATOM     23  O   UNL d   1       4.868  -2.093  -0.167  0.00  0.00    -0.395 OA
ATOM     24  H   UNL d   1       4.417  -2.373  -0.981  0.00  0.00     0.210 HD
ENDBRANCH  21  23
ENDBRANCH   4  21
TORSDOF 9
