REMARK  7 active torsions:
REMARK  status: ('A' for Active; 'I' for Inactive)
REMARK    1  A    between atoms: O_1  and  C_12 
REMARK    2  A    between atoms: O_3  and  C_19 
REMARK    3  A    between atoms: O_4  and  C_23 
REMARK    4  A    between atoms: O_6  and  C_28 
REMARK    5  A    between atoms: N_8  and  C_15 
REMARK    6  A    between atoms: N_9  and  C_25 
REMARK       I    between atoms: N_10  and  C_29 
REMARK    7  A    between atoms: C_22  and  C_29 
ROOT
ATOM      1  O   UNL d   1      -0.490  -2.525   1.846  0.00  0.00    -0.289 OA
ATOM      2  O   UNL d   1      -4.146   1.815  -1.405  0.00  0.00    -0.290 OA
ATOM      3  C   UNL d   1      -1.789   0.743   1.163  0.00  0.00     0.077 C 
ATOM      4  C   UNL d   1      -1.881  -0.774   0.929  0.00  0.00     0.177 C 
ATOM      5  C   UNL d   1      -0.577   1.360   0.437  0.00  0.00     0.021 C 
ATOM      6  C   UNL d   1       0.757   0.718   0.842  0.00  0.00     0.030 C 
ATOM      7  C   UNL d   1      -3.075   1.456   0.703  0.00  0.00     0.304 C 
ATOM      8  C   UNL d   1       0.712  -0.786   0.770  0.00  0.00     0.030 C 
ATOM      9  C   UNL d   1      -0.542  -1.454   1.240  0.00  0.00     0.200 C 
ATOM     10  C   UNL d   1       1.873   1.318  -0.041  0.00  0.00     0.051 C 
ATOM     11  C   UNL d   1      -2.370  -1.140  -0.458  0.00  0.00     0.105 C 
ATOM     12  C   UNL d   1      -3.467   1.056  -0.710  0.00  0.00     0.201 C 
ATOM     13  C   UNL d   1       3.133   0.493  -0.062  0.00  0.00    -0.015 A 
ATOM     14  C   UNL d   1      -3.070  -0.292  -1.241  0.00  0.00     0.112 C 
ATOM     15  C   UNL d   1       1.760  -1.539   0.383  0.00  0.00     0.089 C 
ATOM     16  C   UNL d   1       3.069  -0.904   0.105  0.00  0.00     0.039 A 
ATOM     17  C   UNL d   1       4.362   1.119  -0.323  0.00  0.00     0.036 A 
ATOM     18  C   UNL d   1       4.266  -1.638   0.050  0.00  0.00     0.079 A 
ATOM     19  C   UNL d   1       5.535   0.372  -0.386  0.00  0.00     0.033 A 
ATOM     20  C   UNL d   1       5.487  -1.005  -0.195  0.00  0.00     0.040 A 
ENDROOT
BRANCH  14  21
ATOM     21  C   UNL d   1      -3.473  -0.671  -2.607  0.00  0.00     0.255 C 
ATOM     22  O   UNL d   1      -4.652  -0.710  -2.938  0.00  0.00    -0.268 OA
ATOM     23  N   UNL d   1      -2.409  -0.960  -3.423  0.00  0.00    -0.366 N 
ATOM     24  H   UNL d   1      -1.444  -0.904  -3.112  0.00  0.00     0.159 HD
ATOM     25  H   UNL d   1      -2.555  -1.237  -4.389  0.00  0.00     0.159 HD
ENDBRANCH  14  21
BRANCH  11  26
ATOM     26  O   UNL d   1      -2.045  -2.436  -0.821  0.00  0.00    -0.360 OA
ATOM     27  H   UNL d   1      -2.408  -2.619  -1.703  0.00  0.00     0.217 HD
ENDBRANCH  11  26
BRANCH   4  28
ATOM     28  O   UNL d   1      -2.800  -1.325   1.880  0.00  0.00    -0.374 OA
ATOM     29  H   UNL d   1      -2.935  -2.264   1.667  0.00  0.00     0.211 HD
ENDBRANCH   4  28
BRANCH   7  30
ATOM     30  N   UNL d   1      -4.237   1.183   1.545  0.00  0.00     0.092 N 
ATOM     31  C   UNL d   1      -5.388   1.961   1.091  0.00  0.00     0.310 C 
ATOM     32  C   UNL d   1      -3.934   1.482   2.943  0.00  0.00     0.310 C 
ENDBRANCH   7  30
BRANCH  15  33
ATOM     33  O   UNL d   1       1.668  -2.913   0.270  0.00  0.00    -0.359 OA
ATOM     34  H   UNL d   1       0.750  -3.196   0.406  0.00  0.00     0.217 HD
ENDBRANCH  15  33
BRANCH  18  35
ATOM     35  O   UNL d   1       4.310  -2.988   0.257  0.00  0.00    -0.360 OA
ATOM     36  H   UNL d   1       5.228  -3.301   0.181  0.00  0.00     0.217 HD
ENDBRANCH  18  35
BRANCH  17  37
ATOM     37  N   UNL d   1       4.445   2.514  -0.540  0.00  0.00    -0.389 N 
ATOM     38  C   UNL d   1       4.662   3.415   0.573  0.00  0.00     0.149 C 
ATOM     39  C   UNL d   1       4.307   3.055  -1.876  0.00  0.00     0.149 C 
ENDBRANCH  17  37
TORSDOF 7
