444170
  -OEChem-05282509573D

 71 75  0     1  0  0  0  0  0999 V2000
    2.4394   -2.9882    1.7173 P   0  0  2  0  0  0  0  0  0  0  0  0
    2.4794   -3.1503   -1.2203 P   0  0  1  0  0  0  0  0  0  0  0  0
    0.7022    0.6963    3.1587 O   0  0  0  0  0  0  0  0  0  0  0  0
   -1.4987   -0.9103   -3.3374 O   0  0  0  0  0  0  0  0  0  0  0  0
   -2.2005    0.4805    4.0679 O   0  0  0  0  0  0  0  0  0  0  0  0
   -2.3472    2.1459    1.9253 O   0  0  0  0  0  0  0  0  0  0  0  0
    0.6425    0.9695   -4.4563 O   0  0  0  0  0  0  0  0  0  0  0  0
   -0.4966    2.4151   -2.4419 O   0  0  0  0  0  0  0  0  0  0  0  0
    1.6639   -1.8876    2.6143 O   0  0  0  0  0  0  0  0  0  0  0  0
    1.7567   -2.1703   -2.2861 O   0  0  0  0  0  0  0  0  0  0  0  0
    1.9284   -2.6616    0.2189 O   0  0  0  0  0  0  0  0  0  0  0  0
    1.6837   -4.3755    2.0649 O   0  0  0  0  0  0  0  0  0  0  0  0
    1.7520   -4.5801   -1.4296 O   0  0  0  0  0  0  0  0  0  0  0  0
    3.9315   -3.0224    1.8748 O   0  0  0  0  0  0  0  0  0  0  0  0
    3.9764   -3.1962   -1.3229 O   0  0  0  0  0  0  0  0  0  0  0  0
   -4.9795   -1.9681    1.5592 O   0  0  0  0  0  0  0  0  0  0  0  0
    0.7972    2.5950    1.7388 N   0  0  0  0  0  0  0  0  0  0  0  0
    1.6255    4.3724    0.6784 N   0  0  0  0  0  0  0  0  0  0  0  0
   -3.0188   -0.6711   -1.0677 N   0  0  0  0  0  0  0  0  0  0  0  0
    2.1927    0.8515    0.7830 N   0  0  0  0  0  0  0  0  0  0  0  0
    3.7877    1.7715   -0.8187 N   0  0  0  0  0  0  0  0  0  0  0  0
    3.8979    4.1080   -1.3245 N   0  0  0  0  0  0  0  0  0  0  0  0
   -3.1274   -2.8364    0.5227 N   0  0  0  0  0  0  0  0  0  0  0  0
   -1.5656    0.0320    2.8704 C   0  0  1  0  0  0  0  0  0  0  0  0
   -1.2804    1.2206    1.9739 C   0  0  2  0  0  0  0  0  0  0  0  0
   -0.1632   -0.4615    3.2124 C   0  0  1  0  0  0  0  0  0  0  0  0
   -0.0465    1.8118    2.6386 C   0  0  1  0  0  0  0  0  0  0  0  0
    0.5237    0.3261   -3.1877 C   0  0  2  0  0  0  0  0  0  0  0  0
   -0.0633   -1.0661   -3.3820 C   0  0  1  0  0  0  0  0  0  0  0  0
   -0.5299    1.0060   -2.3351 C   0  0  2  0  0  0  0  0  0  0  0  0
   -1.8243    0.4218   -2.8896 C   0  0  2  0  0  0  0  0  0  0  0  0
    0.3585   -1.4969    2.2260 C   0  0  0  0  0  0  0  0  0  0  0  0
    0.3453   -2.0426   -2.2876 C   0  0  0  0  0  0  0  0  0  0  0  0
   -2.9463    0.4091   -1.8773 C   0  0  0  0  0  0  0  0  0  0  0  0
    1.7881    2.1226    0.9262 C   0  0  0  0  0  0  0  0  0  0  0  0
    0.7372    3.9509    1.5542 C   0  0  0  0  0  0  0  0  0  0  0  0
    2.2894    3.2401    0.2779 C   0  0  0  0  0  0  0  0  0  0  0  0
   -3.8266    1.4778   -1.8256 C   0  0  0  0  0  0  0  0  0  0  0  0
    3.3282    3.0310   -0.6236 C   0  0  0  0  0  0  0  0  0  0  0  0
   -4.8469    1.4353   -0.8819 C   0  0  0  0  0  0  0  0  0  0  0  0
   -4.0235   -0.6771   -0.1632 C   0  0  0  0  0  0  0  0  0  0  0  0
   -4.9542    0.3408   -0.0310 C   0  0  0  0  0  0  0  0  0  0  0  0
    3.2000    0.7748   -0.1136 C   0  0  0  0  0  0  0  0  0  0  0  0
   -4.0882   -1.8442    0.6998 C   0  0  0  0  0  0  0  0  0  0  0  0
   -2.2111   -0.7191    2.4143 H   0  0  0  0  0  0  0  0  0  0  0  0
   -1.0580    0.8841    0.9560 H   0  0  0  0  0  0  0  0  0  0  0  0
   -0.0973   -0.8544    4.2332 H   0  0  0  0  0  0  0  0  0  0  0  0
   -0.3046    2.4688    3.4787 H   0  0  0  0  0  0  0  0  0  0  0  0
    1.5139    0.3481   -2.7252 H   0  0  0  0  0  0  0  0  0  0  0  0
    0.2045   -1.4770   -4.3621 H   0  0  0  0  0  0  0  0  0  0  0  0
   -0.3929    0.7286   -1.2839 H   0  0  0  0  0  0  0  0  0  0  0  0
   -2.1540    0.9754   -3.7784 H   0  0  0  0  0  0  0  0  0  0  0  0
    0.3926   -1.0763    1.2175 H   0  0  0  0  0  0  0  0  0  0  0  0
   -0.2938   -2.3758    2.2194 H   0  0  0  0  0  0  0  0  0  0  0  0
   -0.1164   -3.0191   -2.4696 H   0  0  0  0  0  0  0  0  0  0  0  0
    0.0014   -1.7028   -1.3049 H   0  0  0  0  0  0  0  0  0  0  0  0
   -2.3254   -0.2970    4.6386 H   0  0  0  0  0  0  0  0  0  0  0  0
   -3.1455    1.6582    1.6633 H   0  0  0  0  0  0  0  0  0  0  0  0
    0.0292    4.5759    2.0812 H   0  0  0  0  0  0  0  0  0  0  0  0
    1.2997    0.4728   -4.9731 H   0  0  0  0  0  0  0  0  0  0  0  0
    0.3910    2.7065   -2.1724 H   0  0  0  0  0  0  0  0  0  0  0  0
   -3.7331    2.3287   -2.4918 H   0  0  0  0  0  0  0  0  0  0  0  0
   -5.5560    2.2544   -0.8087 H   0  0  0  0  0  0  0  0  0  0  0  0
   -5.7493    0.3091    0.7062 H   0  0  0  0  0  0  0  0  0  0  0  0
    3.5939   -0.2194   -0.2939 H   0  0  0  0  0  0  0  0  0  0  0  0
    0.7139   -4.4395    1.9338 H   0  0  0  0  0  0  0  0  0  0  0  0
    2.1143   -5.3677   -0.9708 H   0  0  0  0  0  0  0  0  0  0  0  0
    3.5565    5.0487   -1.1810 H   0  0  0  0  0  0  0  0  0  0  0  0
    4.6515    3.9306   -1.9745 H   0  0  0  0  0  0  0  0  0  0  0  0
   -3.1299   -3.6736    1.0956 H   0  0  0  0  0  0  0  0  0  0  0  0
   -2.3936   -2.7577   -0.1744 H   0  0  0  0  0  0  0  0  0  0  0  0
  1  9  1  0  0  0  0
  1 11  1  0  0  0  0
  1 12  1  0  0  0  0
  1 14  2  0  0  0  0
  2 10  1  0  0  0  0
  2 11  1  0  0  0  0
  2 13  1  0  0  0  0
  2 15  2  0  0  0  0
  3 26  1  0  0  0  0
  3 27  1  0  0  0  0
  4 29  1  0  0  0  0
  4 31  1  0  0  0  0
  5 24  1  0  0  0  0
  5 57  1  0  0  0  0
  6 25  1  0  0  0  0
  6 58  1  0  0  0  0
  7 28  1  0  0  0  0
  7 60  1  0  0  0  0
  8 30  1  0  0  0  0
  8 61  1  0  0  0  0
  9 32  1  0  0  0  0
 10 33  1  0  0  0  0
 12 66  1  0  0  0  0
 13 67  1  0  0  0  0
 16 44  2  0  0  0  0
 17 27  1  0  0  0  0
 17 35  1  0  0  0  0
 17 36  1  0  0  0  0
 18 36  2  0  0  0  0
 18 37  1  0  0  0  0
 19 34  2  0  0  0  0
 19 41  1  0  0  0  0
 20 35  2  0  0  0  0
 20 43  1  0  0  0  0
 21 39  1  0  0  0  0
 21 43  2  0  0  0  0
 22 39  1  0  0  0  0
 22 68  1  0  0  0  0
 22 69  1  0  0  0  0
 23 44  1  0  0  0  0
 23 70  1  0  0  0  0
 23 71  1  0  0  0  0
 24 25  1  0  0  0  0
 24 26  1  0  0  0  0
 24 45  1  0  0  0  0
 25 27  1  0  0  0  0
 25 46  1  0  0  0  0
 26 32  1  0  0  0  0
 26 47  1  0  0  0  0
 27 48  1  0  0  0  0
 28 29  1  0  0  0  0
 28 30  1  0  0  0  0
 28 49  1  0  0  0  0
 29 33  1  0  0  0  0
 29 50  1  0  0  0  0
 30 31  1  0  0  0  0
 30 51  1  0  0  0  0
 31 34  1  0  0  0  0
 31 52  1  0  0  0  0
 32 53  1  0  0  0  0
 32 54  1  0  0  0  0
 33 55  1  0  0  0  0
 33 56  1  0  0  0  0
 34 38  1  0  0  0  0
 35 37  1  0  0  0  0
 36 59  1  0  0  0  0
 37 39  2  0  0  0  0
 38 40  2  0  0  0  0
 38 62  1  0  0  0  0
 40 42  1  0  0  0  0
 40 63  1  0  0  0  0
 41 42  2  0  0  0  0
 41 44  1  0  0  0  0
 42 64  1  0  0  0  0
 43 65  1  0  0  0  0
M  END
> <PUBCHEM_COMPOUND_CID>
444170

> <PUBCHEM_CONFORMER_RMSD>
1.8

> <PUBCHEM_CONFORMER_DIVERSEORDER>
1
134
131
125
9
97
173
43
154
67
118
2
120
35
150
7
158
45
180
165
61
98
86
149
119
55
4
40
178
29
143
3
153
80
103
37
179
41
13
21
106
36
26
100
93
111
11
44
47
84
183
174
65
18
151
8
138
6
88
108
85
161
50
113
39
141
82
83
107
132
30
76
177
163
182
130
146
22
92
38
142
10
147
176
25
124
79
164
54
72
162
16
133
66
169
42
145
49
155
73
170
115
159
27
5
101
156
140
14
114
116
167
117
71
12
171
60
91
104
112
52
166
64
62
152
175
129
157
109
144
89
168
160
181
95
19
139
78
23
77
127
94
46
172
28
34
105
57
148
69
128
135
81
51
58
99
121
56
102
123
87
59
68
33
74
32
31
122
63
136
90
96
126
137
17
70
75
53
15
24
110
20
48

> <PUBCHEM_MMFF94_PARTIAL_CHARGES>
59
1 1.51
10 -0.55
11 -0.54
12 -0.77
13 -0.77
14 -0.7
15 -0.7
16 -0.57
17 0.05
18 -0.57
19 -0.62
2 1.51
20 -0.57
21 -0.62
22 -0.9
23 -0.8
24 0.28
25 0.28
26 0.28
27 0.54
28 0.28
29 0.28
3 -0.56
30 0.28
31 0.42
32 0.28
33 0.28
34 0.17
35 0.11
36 0.04
37 0.23
38 -0.15
39 0.41
4 -0.56
40 -0.15
41 0.4
42 -0.15
43 0.47
44 0.54
5 -0.68
57 0.4
58 0.4
59 0.15
6 -0.68
60 0.4
61 0.4
62 0.15
63 0.15
64 0.15
65 0.15
66 0.5
67 0.5
68 0.4
69 0.4
7 -0.68
70 0.37
71 0.37
8 -0.68
9 -0.55

> <PUBCHEM_EFFECTIVE_ROTOR_COUNT>
13

> <PUBCHEM_PHARMACOPHORE_FEATURES>
27
1 12 acceptor
1 13 acceptor
1 14 acceptor
1 15 acceptor
1 16 acceptor
1 19 acceptor
1 22 cation
1 22 donor
1 23 donor
1 3 acceptor
1 4 acceptor
1 5 acceptor
1 5 donor
1 6 acceptor
1 6 donor
1 7 acceptor
1 7 donor
1 8 acceptor
1 8 donor
3 17 18 36 cation
3 17 20 35 cation
3 20 21 43 cation
5 17 18 35 36 37 rings
5 3 24 25 26 27 rings
5 4 28 29 30 31 rings
6 19 34 38 40 41 42 rings
6 20 21 35 37 39 43 rings

> <PUBCHEM_HEAVY_ATOM_COUNT>
44

> <PUBCHEM_ATOM_DEF_STEREO_COUNT>
8

> <PUBCHEM_ATOM_UDEF_STEREO_COUNT>
0

> <PUBCHEM_BOND_DEF_STEREO_COUNT>
0

> <PUBCHEM_BOND_UDEF_STEREO_COUNT>
0

> <PUBCHEM_ISOTOPIC_ATOM_COUNT>
0

> <PUBCHEM_COMPONENT_COUNT>
1

> <PUBCHEM_CACTVS_TAUTO_COUNT>
6

> <PUBCHEM_CONFORMER_ID>
0006C70A00000001

> <PUBCHEM_MMFF94_ENERGY>
67.076

> <PUBCHEM_FEATURE_SELFOVERLAP>
137.702

> <PUBCHEM_SHAPE_FINGERPRINT>
11513181 2 17531519992506518457
11578080 2 18337410300461253429
12156800 1 16827250569708264125
12539773 59 12530210981872925405
15264996 19 17547579630813907167
15274700 242 17916035723274693456
15406563 42 17531820163681609892
25265897 201 16662362677895002100
35225 105 17549842408742881420
6287921 2 17458895016341339897

> <PUBCHEM_SHAPE_MULTIPOLES>
796.16
7.32
5.54
4.83
6.21
0.66
-0.66
0.88
-0.34
-7.11
0.69
0.7
0.49
-0.29

> <PUBCHEM_SHAPE_SELFOVERLAP>
1688.506

> <PUBCHEM_SHAPE_VOLUME>
447.4

> <PUBCHEM_COORDINATE_TYPE>
2
5
10

$$$$
