REMARK  9 active torsions:
REMARK  status: ('A' for Active; 'I' for Inactive)
REMARK    1  A    between atoms: S_1  and  C_13 
REMARK    2  A    between atoms: S_1  and  C_14 
REMARK    3  A    between atoms: O_2  and  C_20 
REMARK    4  A    between atoms: O_5  and  C_24 
REMARK       I    between atoms: N_9  and  C_22 
REMARK    5  A    between atoms: C_10  and  C_12 
REMARK    6  A    between atoms: C_12  and  C_20 
REMARK    7  A    between atoms: C_12  and  C_21 
REMARK    8  A    between atoms: C_16  and  C_22 
REMARK    9  A    between atoms: CA_18  and  C_24 
ROOT
ATOM      1  N   UNL d   1      -2.677   0.697   0.427  0.00  0.00    -0.378 N 
ATOM      2  C   UNL d   1      -2.349  -0.716   0.337  0.00  0.00     0.103 C 
ATOM      3  C   UNL d   1      -1.080  -0.716  -0.585  0.00  0.00     0.047 C 
ATOM      4  C   UNL d   1      -0.706   0.763  -0.634  0.00  0.00     0.018 C 
ATOM      5  CA  UNL d   1      -1.674   1.491  -0.060  0.00  0.00     0.116 C 
ATOM      6  C   UNL d   1      -1.301  -1.296  -1.983  0.00  0.00     0.017 C 
ATOM      7  H   UNL d   1      -3.403   1.069   1.025  0.00  0.00     0.160 HD
ENDROOT
BRANCH   4   8
ATOM      8  S   UNL d   1       0.769   1.338  -1.296  0.00  0.00    -0.125 SA
BRANCH   8   9
ATOM      9  C   UNL d   1       1.834   1.246   0.166  0.00  0.00     0.083 C 
ATOM     10  C   UNL d   1       2.384  -0.153   0.423  0.00  0.00     0.062 C 
ATOM     11  C   UNL d   1       3.772   0.089   1.014  0.00  0.00     0.312 C 
ATOM     12  N   UNL d   1       3.976   1.544   1.056  0.00  0.00     0.098 N 
ATOM     13  C   UNL d   1       3.082   2.099   0.028  0.00  0.00     0.286 C 
ATOM     14  H   UNL d   1       4.945   1.812   0.893  0.00  0.00     0.317 HD
BRANCH  11  15
ATOM     15  C   UNL d   1       4.858  -0.475   0.152  0.00  0.00     0.252 C 
ATOM     16  O   UNL d   1       5.672   0.291  -0.370  0.00  0.00    -0.271 OA
ATOM     17  N   UNL d   1       4.875  -1.862  -0.005  0.00  0.00    -0.359 N 
ATOM     18  C   UNL d   1       3.891  -2.733   0.632  0.00  0.00     0.152 C 
ATOM     19  C   UNL d   1       5.876  -2.542  -0.818  0.00  0.00     0.152 C 
ENDBRANCH  11  15
ENDBRANCH   8   9
ENDBRANCH   4   8
BRANCH   5  20
ATOM     20  C   UNL d   1      -1.727   2.938   0.114  0.00  0.00     0.194 C 
ATOM     21  OXT UNL d   1      -0.861   3.716  -0.255  0.00  0.00    -0.645 OA
BRANCH  20  22
ATOM     22  O   UNL d   1      -2.873   3.284   0.741  0.00  0.00    -0.772 OA
ATOM     23  H   UNL d   1      -2.942   4.253   0.875  0.00  0.00     0.167 HD
ENDBRANCH  20  22
ENDBRANCH   5  20
BRANCH   2  24
ATOM     24  C   UNL d   1      -3.555  -1.512  -0.130  0.00  0.00     0.099 C 
BRANCH  24  25
ATOM     25  C   UNL d   1      -4.562  -1.855   0.988  0.00  0.00     0.126 C 
ATOM     26  C   UNL d   1      -4.054  -2.956   1.913  0.00  0.00     0.040 C 
BRANCH  25  27
ATOM     27  O   UNL d   1      -4.827  -0.689   1.766  0.00  0.00    -0.395 OA
ATOM     28  H   UNL d   1      -5.480  -0.930   2.445  0.00  0.00     0.210 HD
ENDBRANCH  25  27
ENDBRANCH  24  25
BRANCH  24  29
ATOM     29  C   UNL d   1      -4.301  -0.780  -1.240  0.00  0.00     0.240 C 
ATOM     30  O   UNL d   1      -4.443  -1.210  -2.381  0.00  0.00    -0.306 OA
ENDBRANCH  24  29
ENDBRANCH   2  24
TORSDOF 9
